@<TRIPOS>MOLECULE
jmc_30
37   39    1
SMALL
USER_CHARGES


@<TRIPOS>ATOM
      1 C1         -1.9612   21.5502  -27.3300 C.ar      1 UNK         0.0000 
      2 C2         -1.2942   22.4120  -28.1957 C.ar      1 UNK         0.0000 
      3 C3         -1.9550   22.9520  -29.2938 C.ar      1 UNK         0.0000 
      4 C4         -3.2998   22.6223  -29.5426 C.ar      1 UNK         0.0000 
      5 C5         -3.9689   21.7588  -28.6534 C.ar      1 UNK         0.0000 
      6 C6         -3.2917   21.2292  -27.5624 C.ar      1 UNK         0.0000 
      7 Cl7        -5.6403   21.3533  -28.9190 Cl        1 UNK         0.0000 
      8 C8         -4.0401   23.1522  -30.7110 C.2       1 UNK         0.0000 
      9 O9         -4.2265   22.4198  -31.6685 O.2       1 UNK         0.0000 
     10 N10        -4.5133   24.4119  -30.6476 N.am      1 UNK         0.0000 
     11 C11        -5.2869   25.1112  -31.5800 C.ar      1 UNK         0.0000 
     12 C12        -5.9620   24.5479  -32.6807 C.ar      1 UNK         0.0000 
     13 C13        -6.7806   25.3609  -33.4589 C.ar      1 UNK         0.0000 
     14 N14        -6.9234   26.6542  -33.1828 N.ar      1 UNK         0.0000 
     15 C15        -6.2984   27.2317  -32.1577 C.ar      1 UNK         0.0000 
     16 C16        -5.5070   26.4571  -31.3066 C.ar      1 UNK         0.0000 
     17 N17        -6.5391   28.5828  -31.8838 N.am      1 UNK         0.0000 
     18 C18        -5.7134   29.4445  -31.2331 C.2       1 UNK         0.0000 
     19 O19        -4.6156   29.1218  -30.8098 O.2       1 UNK         0.0000 
     20 C20        -6.2319   30.8471  -31.0310 C.3       1 UNK         0.0000 
     21 C21        -5.5787   31.7462  -29.9763 C.3       1 UNK         0.0000 
     22 C22        -5.3636   32.0236  -31.4653 C.3       1 UNK         0.0000 
     23 C23        -4.0190   31.7003  -32.0462 C.1       1 UNK         0.0000 
     24 Cl24       -1.1124   24.0506  -30.3318 Cl        1 UNK         0.0000 
     25 H25        -7.3054   30.9413  -31.1624 H         1 UNK         0.0000 
     26 H26        -5.8627   32.8962  -31.8829 H         1 UNK         0.0000 
     27 H27        -1.4436   21.1321  -26.4786 H         1 UNK         0.0000 
     28 H28        -0.2591   22.6635  -28.0157 H         1 UNK         0.0000 
     29 H29        -3.8111   20.5610  -26.8909 H         1 UNK         0.0000 
     30 H30        -4.3168   24.9848  -29.8393 H         1 UNK         0.0000 
     31 H31        -5.8400   23.4993  -32.9094 H         1 UNK         0.0000 
     32 H32        -7.3119   24.9439  -34.3018 H         1 UNK         0.0000 
     33 H33        -5.0645   26.9093  -30.4313 H         1 UNK         0.0000 
     34 H34        -7.4045   29.0126  -32.1802 H         1 UNK         0.0000 
     35 H35        -6.3523   32.2035  -29.3584 H         1 UNK         0.0000 
     36 H36        -4.9174   31.1488  -29.3474 H         1 UNK         0.0000 
     37 N37        -2.7003   31.3832  -32.6159 N.1       1 UNK         0.0000 
@<TRIPOS>BOND
     1    1    2 ar   
     2    1    6 ar   
     3    1   27 1    
     4    2    3 ar   
     5    2   28 1    
     6    3    4 ar   
     7    3   24 1    
     8    4    5 ar   
     9    4    8 1    
    10    5    6 ar   
    11    5    7 1    
    12    6   29 1    
    13    8    9 2    
    14    8   10 am   BACKBONE|DICT|INTERRES
    15   10   11 1    
    16   10   30 1    
    17   11   12 ar   
    18   11   16 ar   
    19   12   13 ar   
    20   12   31 1    
    21   13   14 ar   
    22   13   32 1    
    23   14   15 ar   
    24   15   16 ar   
    25   15   17 1    
    26   16   33 1    
    27   17   18 am   BACKBONE|DICT|INTERRES
    28   17   34 1    
    29   18   19 2    
    30   18   20 1    
    31   20   21 1    
    32   20   22 1    
    33   20   25 1    
    34   21   22 1    
    35   21   35 1    
    36   21   36 1    
    37   22   23 1    
    38   22   26 1    
    39   23   37 3    
@<TRIPOS>SUBSTRUCTURE
     1 UNK         1 GROUP             0       ****    0 ROOT    
@<TRIPOS>MOLECULE
ejm_50
33   34    1
SMALL
USER_CHARGES


@<TRIPOS>ATOM
      1 C1         -1.9612   21.5502  -27.3300 C.ar      1 UNK         0.0000 
      2 C2         -1.2942   22.4120  -28.1957 C.ar      1 UNK         0.0000 
      3 C3         -1.9550   22.9520  -29.2938 C.ar      1 UNK         0.0000 
      4 C4         -3.2998   22.6223  -29.5426 C.ar      1 UNK         0.0000 
      5 C5         -3.9689   21.7588  -28.6534 C.ar      1 UNK         0.0000 
      6 C6         -3.2917   21.2292  -27.5624 C.ar      1 UNK         0.0000 
      7 Cl7        -5.6403   21.3533  -28.9190 Cl        1 UNK         0.0000 
      8 C8         -4.0401   23.1522  -30.7110 C.2       1 UNK         0.0000 
      9 O9         -4.2265   22.4198  -31.6685 O.2       1 UNK         0.0000 
     10 N10        -4.5133   24.4119  -30.6476 N.am      1 UNK         0.0000 
     11 C11        -5.2869   25.1112  -31.5800 C.ar      1 UNK         0.0000 
     12 C12        -5.9620   24.5479  -32.6807 C.ar      1 UNK         0.0000 
     13 C13        -6.7806   25.3609  -33.4589 C.ar      1 UNK         0.0000 
     14 N14        -6.9234   26.6542  -33.1828 N.ar      1 UNK         0.0000 
     15 C15        -6.2984   27.2317  -32.1577 C.ar      1 UNK         0.0000 
     16 C16        -5.5070   26.4571  -31.3066 C.ar      1 UNK         0.0000 
     17 N17        -6.5391   28.5828  -31.8838 N.am      1 UNK         0.0000 
     18 C18        -5.7134   29.4445  -31.2331 C.2       1 UNK         0.0000 
     19 O19        -4.6156   29.1218  -30.8098 O.2       1 UNK         0.0000 
     20 C20        -6.2319   30.8471  -31.0310 C.3       1 UNK         0.0000 
     21 Cl21       -1.1124   24.0506  -30.3318 Cl        1 UNK         0.0000 
     22 H22        -6.7611   31.2474  -31.8901 H         1 UNK         0.0000 
     23 H23        -1.4436   21.1321  -26.4786 H         1 UNK         0.0000 
     24 H24        -0.2591   22.6635  -28.0157 H         1 UNK         0.0000 
     25 H25        -3.8111   20.5610  -26.8909 H         1 UNK         0.0000 
     26 H26        -4.3168   24.9848  -29.8393 H         1 UNK         0.0000 
     27 H27        -5.8400   23.4993  -32.9094 H         1 UNK         0.0000 
     28 H28        -7.3119   24.9439  -34.3018 H         1 UNK         0.0000 
     29 H29        -5.0645   26.9093  -30.4313 H         1 UNK         0.0000 
     30 H30        -7.4045   29.0126  -32.1802 H         1 UNK         0.0000 
     31 H31        -6.8876   30.8681  -30.1605 H         1 UNK         0.0000 
     32 H32        -5.4617   32.7685  -30.5367 H         1 UNK         0.0000 
     33 O33        -5.0874   31.8048  -30.6730 O.3       1 UNK         0.0000 
@<TRIPOS>BOND
     1    1    2 ar   
     2    1    6 ar   
     3    1   23 1    
     4    2    3 ar   
     5    2   24 1    
     6    3    4 ar   
     7    3   21 1    
     8    4    5 ar   
     9    4    8 1    
    10    5    6 ar   
    11    5    7 1    
    12    6   25 1    
    13    8    9 2    
    14    8   10 am   BACKBONE|DICT|INTERRES
    15   10   11 1    
    16   10   26 1    
    17   11   12 ar   
    18   11   16 ar   
    19   12   13 ar   
    20   12   27 1    
    21   13   14 ar   
    22   13   28 1    
    23   14   15 ar   
    24   15   16 ar   
    25   15   17 1    
    26   16   29 1    
    27   17   18 am   BACKBONE|DICT|INTERRES
    28   17   30 1    
    29   18   19 2    
    30   18   20 1    
    31   20   22 1    
    32   20   31 1    
    33   20   33 1    
    34   32   33 1    
@<TRIPOS>SUBSTRUCTURE
     1 UNK         1 GROUP             0       ****    0 ROOT    
@<TRIPOS>MOLECULE
ejm_46
36   38    1
SMALL
USER_CHARGES


@<TRIPOS>ATOM
      1 C1         -1.9612   21.5502  -27.3300 C.ar      1 UNK         0.0000 
      2 C2         -1.2942   22.4120  -28.1957 C.ar      1 UNK         0.0000 
      3 C3         -1.9550   22.9520  -29.2938 C.ar      1 UNK         0.0000 
      4 C4         -3.2998   22.6223  -29.5426 C.ar      1 UNK         0.0000 
      5 C5         -3.9689   21.7588  -28.6534 C.ar      1 UNK         0.0000 
      6 C6         -3.2917   21.2292  -27.5624 C.ar      1 UNK         0.0000 
      7 Cl7        -5.6403   21.3533  -28.9190 Cl        1 UNK         0.0000 
      8 C8         -4.0401   23.1522  -30.7110 C.2       1 UNK         0.0000 
      9 O9         -4.2265   22.4198  -31.6685 O.2       1 UNK         0.0000 
     10 N10        -4.5133   24.4119  -30.6476 N.am      1 UNK         0.0000 
     11 C11        -5.2869   25.1112  -31.5800 C.ar      1 UNK         0.0000 
     12 C12        -5.9620   24.5479  -32.6807 C.ar      1 UNK         0.0000 
     13 C13        -6.7806   25.3609  -33.4589 C.ar      1 UNK         0.0000 
     14 N14        -6.9234   26.6542  -33.1828 N.ar      1 UNK         0.0000 
     15 C15        -6.2984   27.2317  -32.1577 C.ar      1 UNK         0.0000 
     16 C16        -5.5070   26.4571  -31.3066 C.ar      1 UNK         0.0000 
     17 N17        -6.5391   28.5828  -31.8838 N.am      1 UNK         0.0000 
     18 C18        -5.7134   29.4445  -31.2331 C.2       1 UNK         0.0000 
     19 O19        -4.6156   29.1218  -30.8098 O.2       1 UNK         0.0000 
     20 C20        -6.2319   30.8471  -31.0310 C.3       1 UNK         0.0000 
     21 C21        -5.5787   31.7462  -29.9763 C.3       1 UNK         0.0000 
     22 C22        -5.3636   32.0236  -31.4653 C.3       1 UNK         0.0000 
     23 H23        -4.3865   31.7887  -31.8874 H         1 UNK         0.0000 
     24 Cl24       -1.1124   24.0506  -30.3318 Cl        1 UNK         0.0000 
     25 H25        -7.3054   30.9413  -31.1624 H         1 UNK         0.0000 
     26 H26        -5.8627   32.8962  -31.8829 H         1 UNK         0.0000 
     27 H27        -1.4436   21.1321  -26.4786 H         1 UNK         0.0000 
     28 H28        -0.2591   22.6635  -28.0157 H         1 UNK         0.0000 
     29 H29        -3.8111   20.5610  -26.8909 H         1 UNK         0.0000 
     30 H30        -4.3168   24.9848  -29.8393 H         1 UNK         0.0000 
     31 H31        -5.8400   23.4993  -32.9094 H         1 UNK         0.0000 
     32 H32        -7.3119   24.9439  -34.3018 H         1 UNK         0.0000 
     33 H33        -5.0645   26.9093  -30.4313 H         1 UNK         0.0000 
     34 H34        -7.4045   29.0126  -32.1802 H         1 UNK         0.0000 
     35 H35        -6.3523   32.2035  -29.3584 H         1 UNK         0.0000 
     36 H36        -4.9174   31.1488  -29.3474 H         1 UNK         0.0000 
@<TRIPOS>BOND
     1    1    2 ar   
     2    1    6 ar   
     3    1   27 1    
     4    2    3 ar   
     5    2   28 1    
     6    3    4 ar   
     7    3   24 1    
     8    4    5 ar   
     9    4    8 1    
    10    5    6 ar   
    11    5    7 1    
    12    6   29 1    
    13    8    9 2    
    14    8   10 am   BACKBONE|DICT|INTERRES
    15   10   11 1    
    16   10   30 1    
    17   11   12 ar   
    18   11   16 ar   
    19   12   13 ar   
    20   12   31 1    
    21   13   14 ar   
    22   13   32 1    
    23   14   15 ar   
    24   15   16 ar   
    25   15   17 1    
    26   16   33 1    
    27   17   18 am   BACKBONE|DICT|INTERRES
    28   17   34 1    
    29   18   19 2    
    30   18   20 1    
    31   20   21 1    
    32   20   22 1    
    33   20   25 1    
    34   21   22 1    
    35   21   35 1    
    36   21   36 1    
    37   22   23 1    
    38   22   26 1    
@<TRIPOS>SUBSTRUCTURE
     1 UNK         1 GROUP             0       ****    0 ROOT    
@<TRIPOS>MOLECULE
ejm_55
33   34    1
SMALL
USER_CHARGES


@<TRIPOS>ATOM
      1 C1         -1.9612   21.5502  -27.3300 C.ar      1 UNK         0.0000 
      2 C2         -1.2942   22.4120  -28.1957 C.ar      1 UNK         0.0000 
      3 C3         -1.9550   22.9520  -29.2938 C.ar      1 UNK         0.0000 
      4 C4         -3.2998   22.6223  -29.5426 C.ar      1 UNK         0.0000 
      5 C5         -3.9689   21.7588  -28.6534 C.ar      1 UNK         0.0000 
      6 C6         -3.2917   21.2292  -27.5624 C.ar      1 UNK         0.0000 
      7 Cl7        -5.6403   21.3533  -28.9190 Cl        1 UNK         0.0000 
      8 C8         -4.0401   23.1522  -30.7110 C.2       1 UNK         0.0000 
      9 O9         -4.2265   22.4198  -31.6685 O.2       1 UNK         0.0000 
     10 N10        -4.5133   24.4119  -30.6476 N.am      1 UNK         0.0000 
     11 C11        -5.2869   25.1112  -31.5800 C.ar      1 UNK         0.0000 
     12 C12        -5.9620   24.5479  -32.6807 C.ar      1 UNK         0.0000 
     13 C13        -6.7806   25.3609  -33.4589 C.ar      1 UNK         0.0000 
     14 N14        -6.9234   26.6542  -33.1828 N.ar      1 UNK         0.0000 
     15 C15        -6.2984   27.2317  -32.1577 C.ar      1 UNK         0.0000 
     16 C16        -5.5070   26.4571  -31.3066 C.ar      1 UNK         0.0000 
     17 N17        -6.5391   28.5828  -31.8838 N.am      1 UNK         0.0000 
     18 C18        -5.7134   29.4445  -31.2331 C.2       1 UNK         0.0000 
     19 O19        -4.6156   29.1218  -30.8098 O.2       1 UNK         0.0000 
     20 Cl20       -1.1124   24.0506  -30.3318 Cl        1 UNK         0.0000 
     21 H21        -1.4436   21.1321  -26.4786 H         1 UNK         0.0000 
     22 H22        -0.2591   22.6635  -28.0157 H         1 UNK         0.0000 
     23 H23        -3.8111   20.5610  -26.8909 H         1 UNK         0.0000 
     24 H24        -4.3168   24.9848  -29.8393 H         1 UNK         0.0000 
     25 H25        -5.8400   23.4993  -32.9094 H         1 UNK         0.0000 
     26 H26        -7.3119   24.9439  -34.3018 H         1 UNK         0.0000 
     27 H27        -5.0645   26.9093  -30.4313 H         1 UNK         0.0000 
     28 H28        -7.4045   29.0126  -32.1802 H         1 UNK         0.0000 
     29 C29        -5.1871   31.8542  -30.6778 C.3       1 UNK         0.0000 
     30 H30        -5.5878   32.8578  -30.8199 H         1 UNK         0.0000 
     31 H31        -4.9066   31.7200  -29.6331 H         1 UNK         0.0000 
     32 O32        -6.2503   30.8477  -31.0335 O.3       1 UNK         0.0000 
     33 H33        -4.3149   31.7110  -31.3157 H         1 UNK         0.0000 
@<TRIPOS>BOND
     1    1    2 ar   
     2    1    6 ar   
     3    1   21 1    
     4    2    3 ar   
     5    2   22 1    
     6    3    4 ar   
     7    3   20 1    
     8    4    5 ar   
     9    4    8 1    
    10    5    6 ar   
    11    5    7 1    
    12    6   23 1    
    13    8    9 2    
    14    8   10 am   BACKBONE|DICT|INTERRES
    15   10   11 1    
    16   10   24 1    
    17   11   12 ar   
    18   11   16 ar   
    19   12   13 ar   
    20   12   25 1    
    21   13   14 ar   
    22   13   26 1    
    23   14   15 ar   
    24   15   16 ar   
    25   15   17 1    
    26   16   27 1    
    27   17   18 am   BACKBONE|DICT|INTERRES
    28   17   28 1    
    29   18   19 2    
    30   18   32 1    
    31   29   30 1    
    32   29   31 1    
    33   29   32 1    
    34   29   33 1    
@<TRIPOS>SUBSTRUCTURE
     1 UNK         1 GROUP             0       ****    0 ROOT    
@<TRIPOS>MOLECULE
ejm_43
38   39    1
SMALL
USER_CHARGES


@<TRIPOS>ATOM
      1 C1         -1.9612   21.5502  -27.3300 C.ar      1 UNK         0.0000 
      2 C2         -1.2942   22.4120  -28.1957 C.ar      1 UNK         0.0000 
      3 C3         -1.9550   22.9520  -29.2938 C.ar      1 UNK         0.0000 
      4 C4         -3.2998   22.6223  -29.5426 C.ar      1 UNK         0.0000 
      5 C5         -3.9689   21.7588  -28.6534 C.ar      1 UNK         0.0000 
      6 C6         -3.2917   21.2292  -27.5624 C.ar      1 UNK         0.0000 
      7 Cl7        -5.6403   21.3533  -28.9190 Cl        1 UNK         0.0000 
      8 C8         -4.0401   23.1522  -30.7110 C.2       1 UNK         0.0000 
      9 O9         -4.2265   22.4198  -31.6685 O.2       1 UNK         0.0000 
     10 N10        -4.5133   24.4119  -30.6476 N.am      1 UNK         0.0000 
     11 C11        -5.2869   25.1112  -31.5800 C.ar      1 UNK         0.0000 
     12 C12        -5.9620   24.5479  -32.6807 C.ar      1 UNK         0.0000 
     13 C13        -6.7806   25.3609  -33.4589 C.ar      1 UNK         0.0000 
     14 N14        -6.9234   26.6542  -33.1828 N.ar      1 UNK         0.0000 
     15 C15        -6.2984   27.2317  -32.1577 C.ar      1 UNK         0.0000 
     16 C16        -5.5070   26.4571  -31.3066 C.ar      1 UNK         0.0000 
     17 N17        -6.5391   28.5828  -31.8838 N.am      1 UNK         0.0000 
     18 C18        -5.7134   29.4445  -31.2331 C.2       1 UNK         0.0000 
     19 O19        -4.6156   29.1218  -30.8098 O.2       1 UNK         0.0000 
     20 C20        -6.2319   30.8471  -31.0310 C.3       1 UNK         0.0000 
     21 Cl21       -1.1124   24.0506  -30.3318 Cl        1 UNK         0.0000 
     22 C22        -6.9632   31.4003  -32.2181 C.3       1 UNK         0.0000 
     23 H23        -1.4436   21.1321  -26.4786 H         1 UNK         0.0000 
     24 H24        -0.2591   22.6635  -28.0157 H         1 UNK         0.0000 
     25 H25        -3.8111   20.5610  -26.8909 H         1 UNK         0.0000 
     26 H26        -4.3168   24.9848  -29.8393 H         1 UNK         0.0000 
     27 H27        -5.8400   23.4993  -32.9094 H         1 UNK         0.0000 
     28 H28        -7.3119   24.9439  -34.3018 H         1 UNK         0.0000 
     29 H29        -5.0645   26.9093  -30.4313 H         1 UNK         0.0000 
     30 H30        -7.4045   29.0126  -32.1802 H         1 UNK         0.0000 
     31 C31        -5.0894   31.7546  -30.6833 C.3       1 UNK         0.0000 
     32 H32        -6.8876   30.8681  -30.1605 H         1 UNK         0.0000 
     33 H33        -5.4617   32.7685  -30.5367 H         1 UNK         0.0000 
     34 H34        -4.6143   31.4065  -29.7661 H         1 UNK         0.0000 
     35 H35        -4.3607   31.7493  -31.4939 H         1 UNK         0.0000 
     36 H36        -7.3052   32.4111  -31.9961 H         1 UNK         0.0000 
     37 H37        -6.2945   31.4242  -33.0786 H         1 UNK         0.0000 
     38 H38        -7.8219   30.7680  -32.4435 H         1 UNK         0.0000 
@<TRIPOS>BOND
     1    1    2 ar   
     2    1    6 ar   
     3    1   23 1    
     4    2    3 ar   
     5    2   24 1    
     6    3    4 ar   
     7    3   21 1    
     8    4    5 ar   
     9    4    8 1    
    10    5    6 ar   
    11    5    7 1    
    12    6   25 1    
    13    8    9 2    
    14    8   10 am   BACKBONE|DICT|INTERRES
    15   10   11 1    
    16   10   26 1    
    17   11   12 ar   
    18   11   16 ar   
    19   12   13 ar   
    20   12   27 1    
    21   13   14 ar   
    22   13   28 1    
    23   14   15 ar   
    24   15   16 ar   
    25   15   17 1    
    26   16   29 1    
    27   17   18 am   BACKBONE|DICT|INTERRES
    28   17   30 1    
    29   18   19 2    
    30   18   20 1    
    31   20   22 1    
    32   20   31 1    
    33   20   32 1    
    34   22   36 1    
    35   22   37 1    
    36   22   38 1    
    37   31   33 1    
    38   31   34 1    
    39   31   35 1    
@<TRIPOS>SUBSTRUCTURE
     1 UNK         1 GROUP             0       ****    0 ROOT    
@<TRIPOS>MOLECULE
jmc_28
39   41    1
SMALL
USER_CHARGES


@<TRIPOS>ATOM
      1 C1         -1.9612   21.5502  -27.3300 C.ar      1 UNK         0.0000 
      2 C2         -1.2942   22.4120  -28.1957 C.ar      1 UNK         0.0000 
      3 C3         -1.9550   22.9520  -29.2938 C.ar      1 UNK         0.0000 
      4 C4         -3.2998   22.6223  -29.5426 C.ar      1 UNK         0.0000 
      5 C5         -3.9689   21.7588  -28.6534 C.ar      1 UNK         0.0000 
      6 C6         -3.2917   21.2292  -27.5624 C.ar      1 UNK         0.0000 
      7 Cl7        -5.6403   21.3533  -28.9190 Cl        1 UNK         0.0000 
      8 C8         -4.0401   23.1522  -30.7110 C.2       1 UNK         0.0000 
      9 O9         -4.2265   22.4198  -31.6685 O.2       1 UNK         0.0000 
     10 N10        -4.5133   24.4119  -30.6476 N.am      1 UNK         0.0000 
     11 C11        -5.2869   25.1112  -31.5800 C.ar      1 UNK         0.0000 
     12 C12        -5.9620   24.5479  -32.6807 C.ar      1 UNK         0.0000 
     13 C13        -6.7806   25.3609  -33.4589 C.ar      1 UNK         0.0000 
     14 N14        -6.9234   26.6542  -33.1828 N.ar      1 UNK         0.0000 
     15 C15        -6.2984   27.2317  -32.1577 C.ar      1 UNK         0.0000 
     16 C16        -5.5070   26.4571  -31.3066 C.ar      1 UNK         0.0000 
     17 N17        -6.5391   28.5828  -31.8838 N.am      1 UNK         0.0000 
     18 C18        -5.7134   29.4445  -31.2331 C.2       1 UNK         0.0000 
     19 O19        -4.6156   29.1218  -30.8098 O.2       1 UNK         0.0000 
     20 C20        -6.2319   30.8471  -31.0310 C.3       1 UNK         0.0000 
     21 C21        -5.5787   31.7462  -29.9763 C.3       1 UNK         0.0000 
     22 C22        -5.3636   32.0236  -31.4653 C.3       1 UNK         0.0000 
     23 C23        -4.0190   31.7003  -32.0462 C.3       1 UNK         0.0000 
     24 Cl24       -1.1124   24.0506  -30.3318 Cl        1 UNK         0.0000 
     25 H25        -7.3054   30.9413  -31.1624 H         1 UNK         0.0000 
     26 H26        -5.8627   32.8962  -31.8829 H         1 UNK         0.0000 
     27 H27        -1.4436   21.1321  -26.4786 H         1 UNK         0.0000 
     28 H28        -0.2591   22.6635  -28.0157 H         1 UNK         0.0000 
     29 H29        -3.8111   20.5610  -26.8909 H         1 UNK         0.0000 
     30 H30        -4.3168   24.9848  -29.8393 H         1 UNK         0.0000 
     31 H31        -5.8400   23.4993  -32.9094 H         1 UNK         0.0000 
     32 H32        -7.3119   24.9439  -34.3018 H         1 UNK         0.0000 
     33 H33        -5.0645   26.9093  -30.4313 H         1 UNK         0.0000 
     34 H34        -7.4045   29.0126  -32.1802 H         1 UNK         0.0000 
     35 H35        -6.3523   32.2035  -29.3584 H         1 UNK         0.0000 
     36 H36        -4.9174   31.1488  -29.3474 H         1 UNK         0.0000 
     37 H37        -3.5059   32.6244  -32.3125 H         1 UNK         0.0000 
     38 H38        -3.4266   31.1553  -31.3112 H         1 UNK         0.0000 
     39 H39        -4.1459   31.0859  -32.9375 H         1 UNK         0.0000 
@<TRIPOS>BOND
     1    1    2 ar   
     2    1    6 ar   
     3    1   27 1    
     4    2    3 ar   
     5    2   28 1    
     6    3    4 ar   
     7    3   24 1    
     8    4    5 ar   
     9    4    8 1    
    10    5    6 ar   
    11    5    7 1    
    12    6   29 1    
    13    8    9 2    
    14    8   10 am   BACKBONE|DICT|INTERRES
    15   10   11 1    
    16   10   30 1    
    17   11   12 ar   
    18   11   16 ar   
    19   12   13 ar   
    20   12   31 1    
    21   13   14 ar   
    22   13   32 1    
    23   14   15 ar   
    24   15   16 ar   
    25   15   17 1    
    26   16   33 1    
    27   17   18 am   BACKBONE|DICT|INTERRES
    28   17   34 1    
    29   18   19 2    
    30   18   20 1    
    31   20   21 1    
    32   20   22 1    
    33   20   25 1    
    34   21   22 1    
    35   21   35 1    
    36   21   36 1    
    37   22   23 1    
    38   22   26 1    
    39   23   37 1    
    40   23   38 1    
    41   23   39 1    
@<TRIPOS>SUBSTRUCTURE
     1 UNK         1 GROUP             0       ****    0 ROOT    
@<TRIPOS>MOLECULE
ejm_49
39   41    1
SMALL
USER_CHARGES


@<TRIPOS>ATOM
      1 C1         -1.9612   21.5502  -27.3300 C.ar      1 UNK         0.0000 
      2 C2         -1.2942   22.4120  -28.1957 C.ar      1 UNK         0.0000 
      3 C3         -1.9550   22.9520  -29.2938 C.ar      1 UNK         0.0000 
      4 C4         -3.2998   22.6223  -29.5426 C.ar      1 UNK         0.0000 
      5 C5         -3.9689   21.7588  -28.6534 C.ar      1 UNK         0.0000 
      6 C6         -3.2917   21.2292  -27.5624 C.ar      1 UNK         0.0000 
      7 Cl7        -5.6403   21.3533  -28.9190 Cl        1 UNK         0.0000 
      8 C8         -4.0401   23.1522  -30.7110 C.2       1 UNK         0.0000 
      9 O9         -4.2265   22.4198  -31.6685 O.2       1 UNK         0.0000 
     10 N10        -4.5133   24.4119  -30.6476 N.am      1 UNK         0.0000 
     11 C11        -5.2869   25.1112  -31.5800 C.ar      1 UNK         0.0000 
     12 C12        -5.9620   24.5479  -32.6807 C.ar      1 UNK         0.0000 
     13 C13        -6.7806   25.3609  -33.4589 C.ar      1 UNK         0.0000 
     14 N14        -6.9234   26.6542  -33.1828 N.ar      1 UNK         0.0000 
     15 C15        -6.2984   27.2317  -32.1577 C.ar      1 UNK         0.0000 
     16 C16        -5.5070   26.4571  -31.3066 C.ar      1 UNK         0.0000 
     17 N17        -6.5391   28.5828  -31.8838 N.am      1 UNK         0.0000 
     18 C18        -5.7134   29.4445  -31.2331 C.2       1 UNK         0.0000 
     19 O19        -4.6156   29.1218  -30.8098 O.2       1 UNK         0.0000 
     20 Cl20       -1.1124   24.0506  -30.3318 Cl        1 UNK         0.0000 
     21 H21        -1.4436   21.1321  -26.4786 H         1 UNK         0.0000 
     22 H22        -0.2591   22.6635  -28.0157 H         1 UNK         0.0000 
     23 H23        -3.8111   20.5610  -26.8909 H         1 UNK         0.0000 
     24 H24        -4.3168   24.9848  -29.8393 H         1 UNK         0.0000 
     25 H25        -5.8400   23.4993  -32.9094 H         1 UNK         0.0000 
     26 H26        -7.3119   24.9439  -34.3018 H         1 UNK         0.0000 
     27 H27        -5.0645   26.9093  -30.4313 H         1 UNK         0.0000 
     28 H28        -7.4045   29.0126  -32.1802 H         1 UNK         0.0000 
     29 C29        -7.0259   33.5314  -30.6164 C.ar      1 UNK         0.0000 
     30 C30        -7.2461   32.9020  -31.8526 C.ar      1 UNK         0.0000 
     31 C31        -6.8210   31.5783  -32.0524 C.ar      1 UNK         0.0000 
     32 C32        -6.1757   30.8841  -31.0159 C.ar      1 UNK         0.0000 
     33 C33        -5.9555   31.5134  -29.7797 C.ar      1 UNK         0.0000 
     34 C34        -6.3806   32.8371  -29.5799 C.ar      1 UNK         0.0000 
     35 H35        -7.3599   34.5712  -30.4595 H         1 UNK         0.0000 
     36 H36        -7.7531   33.4475  -32.6669 H         1 UNK         0.0000 
     37 H37        -6.9940   31.0839  -33.0235 H         1 UNK         0.0000 
     38 H38        -5.4486   30.9679  -28.9655 H         1 UNK         0.0000 
     39 H39        -6.2076   33.3315  -28.6088 H         1 UNK         0.0000 
@<TRIPOS>BOND
     1    1    2 ar   
     2    1    6 ar   
     3    1   21 1    
     4    2    3 ar   
     5    2   22 1    
     6    3    4 ar   
     7    3   20 1    
     8    4    5 ar   
     9    4    8 1    
    10    5    6 ar   
    11    5    7 1    
    12    6   23 1    
    13    8    9 2    
    14    8   10 am   BACKBONE|DICT|INTERRES
    15   10   11 1    
    16   10   24 1    
    17   11   12 ar   
    18   11   16 ar   
    19   12   13 ar   
    20   12   25 1    
    21   13   14 ar   
    22   13   26 1    
    23   14   15 ar   
    24   15   16 ar   
    25   15   17 1    
    26   16   27 1    
    27   17   18 am   BACKBONE|DICT|INTERRES
    28   17   28 1    
    29   18   19 2    
    30   18   32 1    
    31   29   30 ar   
    32   29   34 ar   
    33   29   35 1    
    34   30   31 ar   
    35   30   36 1    
    36   31   32 ar   
    37   31   37 1    
    38   32   33 ar   
    39   33   34 ar   
    40   33   38 1    
    41   34   39 1    
@<TRIPOS>SUBSTRUCTURE
     1 UNK         1 GROUP             0       ****    0 ROOT    
@<TRIPOS>MOLECULE
ejm_45
39   41    1
SMALL
USER_CHARGES


@<TRIPOS>ATOM
      1 C1         -1.9612   21.5502  -27.3300 C.ar      1 UNK         0.0000 
      2 C2         -1.2942   22.4120  -28.1957 C.ar      1 UNK         0.0000 
      3 C3         -1.9550   22.9520  -29.2938 C.ar      1 UNK         0.0000 
      4 C4         -3.2998   22.6223  -29.5426 C.ar      1 UNK         0.0000 
      5 C5         -3.9689   21.7588  -28.6534 C.ar      1 UNK         0.0000 
      6 C6         -3.2917   21.2292  -27.5624 C.ar      1 UNK         0.0000 
      7 Cl7        -5.6403   21.3533  -28.9190 Cl        1 UNK         0.0000 
      8 C8         -4.0401   23.1522  -30.7110 C.2       1 UNK         0.0000 
      9 O9         -4.2265   22.4198  -31.6685 O.2       1 UNK         0.0000 
     10 N10        -4.5133   24.4119  -30.6476 N.am      1 UNK         0.0000 
     11 C11        -5.2869   25.1112  -31.5800 C.ar      1 UNK         0.0000 
     12 C12        -5.9620   24.5479  -32.6807 C.ar      1 UNK         0.0000 
     13 C13        -6.7806   25.3609  -33.4589 C.ar      1 UNK         0.0000 
     14 N14        -6.9234   26.6542  -33.1828 N.ar      1 UNK         0.0000 
     15 C15        -6.2984   27.2317  -32.1577 C.ar      1 UNK         0.0000 
     16 C16        -5.5070   26.4571  -31.3066 C.ar      1 UNK         0.0000 
     17 N17        -6.5391   28.5828  -31.8838 N.am      1 UNK         0.0000 
     18 C18        -5.7134   29.4445  -31.2331 C.2       1 UNK         0.0000 
     19 O19        -4.6156   29.1218  -30.8098 O.2       1 UNK         0.0000 
     20 C20        -6.2319   30.8471  -31.0310 C.3       1 UNK         0.0000 
     21 Cl21       -1.1124   24.0506  -30.3318 Cl        1 UNK         0.0000 
     22 H22        -6.7611   31.2474  -31.8901 H         1 UNK         0.0000 
     23 H23        -1.4436   21.1321  -26.4786 H         1 UNK         0.0000 
     24 H24        -0.2591   22.6635  -28.0157 H         1 UNK         0.0000 
     25 H25        -3.8111   20.5610  -26.8909 H         1 UNK         0.0000 
     26 H26        -4.3168   24.9848  -29.8393 H         1 UNK         0.0000 
     27 H27        -5.8400   23.4993  -32.9094 H         1 UNK         0.0000 
     28 H28        -7.3119   24.9439  -34.3018 H         1 UNK         0.0000 
     29 H29        -5.0645   26.9093  -30.4313 H         1 UNK         0.0000 
     30 H30        -7.4045   29.0126  -32.1802 H         1 UNK         0.0000 
     31 H31        -6.8876   30.8681  -30.1605 H         1 UNK         0.0000 
     32 H32        -5.4617   32.7685  -30.5367 H         1 UNK         0.0000 
     33 C33        -5.1449   31.7586  -30.6906 C.3       1 UNK         0.0000 
     34 C34        -4.0146   31.2150  -29.8569 C.3       1 UNK         0.0000 
     35 C35        -3.7999   31.5051  -31.3190 C.3       1 UNK         0.0000 
     36 H36        -3.5458   31.9321  -29.1428 H         1 UNK         0.0000 
     37 H37        -4.0876   30.1375  -29.5784 H         1 UNK         0.0000 
     38 H38        -3.1919   32.4103  -31.5532 H         1 UNK         0.0000 
     39 H39        -3.7337   30.6157  -31.9888 H         1 UNK         0.0000 
@<TRIPOS>BOND
     1    1    2 ar   
     2    1    6 ar   
     3    1   23 1    
     4    2    3 ar   
     5    2   24 1    
     6    3    4 ar   
     7    3   21 1    
     8    4    5 ar   
     9    4    8 1    
    10    5    6 ar   
    11    5    7 1    
    12    6   25 1    
    13    8    9 2    
    14    8   10 am   BACKBONE|DICT|INTERRES
    15   10   11 1    
    16   10   26 1    
    17   11   12 ar   
    18   11   16 ar   
    19   12   13 ar   
    20   12   27 1    
    21   13   14 ar   
    22   13   28 1    
    23   14   15 ar   
    24   15   16 ar   
    25   15   17 1    
    26   16   29 1    
    27   17   18 am   BACKBONE|DICT|INTERRES
    28   17   30 1    
    29   18   19 2    
    30   18   20 1    
    31   20   22 1    
    32   20   31 1    
    33   20   33 1    
    34   32   33 1    
    35   33   34 1    
    36   33   35 1    
    37   34   35 1    
    38   34   36 1    
    39   34   37 1    
    40   35   38 1    
    41   35   39 1    
@<TRIPOS>SUBSTRUCTURE
     1 UNK         1 GROUP             0       ****    0 ROOT    
@<TRIPOS>MOLECULE
ejm_44
41   42    1
SMALL
USER_CHARGES


@<TRIPOS>ATOM
      1 C1         -1.9612   21.5502  -27.3300 C.ar      1 UNK         0.0000 
      2 C2         -1.2942   22.4120  -28.1957 C.ar      1 UNK         0.0000 
      3 C3         -1.9550   22.9520  -29.2938 C.ar      1 UNK         0.0000 
      4 C4         -3.2998   22.6223  -29.5426 C.ar      1 UNK         0.0000 
      5 C5         -3.9689   21.7588  -28.6534 C.ar      1 UNK         0.0000 
      6 C6         -3.2917   21.2292  -27.5624 C.ar      1 UNK         0.0000 
      7 Cl7        -5.6403   21.3533  -28.9190 Cl        1 UNK         0.0000 
      8 C8         -4.0401   23.1522  -30.7110 C.2       1 UNK         0.0000 
      9 O9         -4.2265   22.4198  -31.6685 O.2       1 UNK         0.0000 
     10 N10        -4.5133   24.4119  -30.6476 N.am      1 UNK         0.0000 
     11 C11        -5.2869   25.1112  -31.5800 C.ar      1 UNK         0.0000 
     12 C12        -5.9620   24.5479  -32.6807 C.ar      1 UNK         0.0000 
     13 C13        -6.7806   25.3609  -33.4589 C.ar      1 UNK         0.0000 
     14 N14        -6.9234   26.6542  -33.1828 N.ar      1 UNK         0.0000 
     15 C15        -6.2984   27.2317  -32.1577 C.ar      1 UNK         0.0000 
     16 C16        -5.5070   26.4571  -31.3066 C.ar      1 UNK         0.0000 
     17 N17        -6.5391   28.5828  -31.8838 N.am      1 UNK         0.0000 
     18 C18        -5.7134   29.4445  -31.2331 C.2       1 UNK         0.0000 
     19 O19        -4.6156   29.1218  -30.8098 O.2       1 UNK         0.0000 
     20 C20        -6.2319   30.8471  -31.0310 C.3       1 UNK         0.0000 
     21 Cl21       -1.1124   24.0506  -30.3318 Cl        1 UNK         0.0000 
     22 C22        -6.9632   31.4003  -32.2181 C.3       1 UNK         0.0000 
     23 H23        -1.4436   21.1321  -26.4786 H         1 UNK         0.0000 
     24 H24        -0.2591   22.6635  -28.0157 H         1 UNK         0.0000 
     25 H25        -3.8111   20.5610  -26.8909 H         1 UNK         0.0000 
     26 H26        -4.3168   24.9848  -29.8393 H         1 UNK         0.0000 
     27 H27        -5.8400   23.4993  -32.9094 H         1 UNK         0.0000 
     28 H28        -7.3119   24.9439  -34.3018 H         1 UNK         0.0000 
     29 H29        -5.0645   26.9093  -30.4313 H         1 UNK         0.0000 
     30 H30        -7.4045   29.0126  -32.1802 H         1 UNK         0.0000 
     31 C31        -5.0894   31.7546  -30.6833 C.3       1 UNK         0.0000 
     32 C32        -7.1343   30.8760  -29.8331 C.3       1 UNK         0.0000 
     33 H33        -5.4617   32.7685  -30.5367 H         1 UNK         0.0000 
     34 H34        -4.6143   31.4065  -29.7661 H         1 UNK         0.0000 
     35 H35        -4.3607   31.7493  -31.4939 H         1 UNK         0.0000 
     36 H36        -7.3052   32.4111  -31.9961 H         1 UNK         0.0000 
     37 H37        -6.2945   31.4242  -33.0786 H         1 UNK         0.0000 
     38 H38        -7.8219   30.7680  -32.4435 H         1 UNK         0.0000 
     39 H39        -7.5101   31.8884  -29.6851 H         1 UNK         0.0000 
     40 H40        -7.9724   30.1975  -29.9924 H         1 UNK         0.0000 
     41 H41        -6.5770   30.5632  -28.9501 H         1 UNK         0.0000 
@<TRIPOS>BOND
     1    1    2 ar   
     2    1    6 ar   
     3    1   23 1    
     4    2    3 ar   
     5    2   24 1    
     6    3    4 ar   
     7    3   21 1    
     8    4    5 ar   
     9    4    8 1    
    10    5    6 ar   
    11    5    7 1    
    12    6   25 1    
    13    8    9 2    
    14    8   10 am   BACKBONE|DICT|INTERRES
    15   10   11 1    
    16   10   26 1    
    17   11   12 ar   
    18   11   16 ar   
    19   12   13 ar   
    20   12   27 1    
    21   13   14 ar   
    22   13   28 1    
    23   14   15 ar   
    24   15   16 ar   
    25   15   17 1    
    26   16   29 1    
    27   17   18 am   BACKBONE|DICT|INTERRES
    28   17   30 1    
    29   18   19 2    
    30   18   20 1    
    31   20   22 1    
    32   20   31 1    
    33   20   32 1    
    34   22   36 1    
    35   22   37 1    
    36   22   38 1    
    37   31   33 1    
    38   31   34 1    
    39   31   35 1    
    40   32   39 1    
    41   32   40 1    
    42   32   41 1    
@<TRIPOS>SUBSTRUCTURE
     1 UNK         1 GROUP             0       ****    0 ROOT    
@<TRIPOS>MOLECULE
ejm_48
42   44    1
SMALL
USER_CHARGES


@<TRIPOS>ATOM
      1 C1         -1.9612   21.5502  -27.3300 C.ar      1 UNK         0.0000 
      2 C2         -1.2942   22.4120  -28.1957 C.ar      1 UNK         0.0000 
      3 C3         -1.9550   22.9520  -29.2938 C.ar      1 UNK         0.0000 
      4 C4         -3.2998   22.6223  -29.5426 C.ar      1 UNK         0.0000 
      5 C5         -3.9689   21.7588  -28.6534 C.ar      1 UNK         0.0000 
      6 C6         -3.2917   21.2292  -27.5624 C.ar      1 UNK         0.0000 
      7 Cl7        -5.6403   21.3533  -28.9190 Cl        1 UNK         0.0000 
      8 C8         -4.0401   23.1522  -30.7110 C.2       1 UNK         0.0000 
      9 O9         -4.2265   22.4198  -31.6685 O.2       1 UNK         0.0000 
     10 N10        -4.5133   24.4119  -30.6476 N.am      1 UNK         0.0000 
     11 C11        -5.2869   25.1112  -31.5800 C.ar      1 UNK         0.0000 
     12 C12        -5.9620   24.5479  -32.6807 C.ar      1 UNK         0.0000 
     13 C13        -6.7806   25.3609  -33.4589 C.ar      1 UNK         0.0000 
     14 N14        -6.9234   26.6542  -33.1828 N.ar      1 UNK         0.0000 
     15 C15        -6.2984   27.2317  -32.1577 C.ar      1 UNK         0.0000 
     16 C16        -5.5070   26.4571  -31.3066 C.ar      1 UNK         0.0000 
     17 N17        -6.5391   28.5828  -31.8838 N.am      1 UNK         0.0000 
     18 C18        -5.7134   29.4445  -31.2331 C.2       1 UNK         0.0000 
     19 O19        -4.6156   29.1218  -30.8098 O.2       1 UNK         0.0000 
     20 Cl20       -1.1124   24.0506  -30.3318 Cl        1 UNK         0.0000 
     21 H21        -1.4436   21.1321  -26.4786 H         1 UNK         0.0000 
     22 H22        -0.2591   22.6635  -28.0157 H         1 UNK         0.0000 
     23 H23        -3.8111   20.5610  -26.8909 H         1 UNK         0.0000 
     24 H24        -4.3168   24.9848  -29.8393 H         1 UNK         0.0000 
     25 H25        -5.8400   23.4993  -32.9094 H         1 UNK         0.0000 
     26 H26        -7.3119   24.9439  -34.3018 H         1 UNK         0.0000 
     27 H27        -5.0645   26.9093  -30.4313 H         1 UNK         0.0000 
     28 H28        -7.4045   29.0126  -32.1802 H         1 UNK         0.0000 
     29 H29        -7.2836   30.9672  -31.1542 H         1 UNK         0.0000 
     30 C30        -6.1757   30.8841  -31.0159 C.3       1 UNK         0.0000 
     31 C31        -5.7758   31.3307  -29.6033 C.3       1 UNK         0.0000 
     32 C32        -4.4024   31.9768  -29.7974 C.3       1 UNK         0.0000 
     33 C33        -4.5846   32.7530  -31.1037 C.3       1 UNK         0.0000 
     34 C34        -5.4197   31.8126  -31.9835 C.3       1 UNK         0.0000 
     35 H35        -5.7582   30.4902  -28.8683 H         1 UNK         0.0000 
     36 H36        -6.4960   32.1001  -29.2320 H         1 UNK         0.0000 
     37 H37        -4.1038   32.6292  -28.9417 H         1 UNK         0.0000 
     38 H38        -3.6249   31.1857  -29.9296 H         1 UNK         0.0000 
     39 H39        -5.1602   33.6882  -30.8978 H         1 UNK         0.0000 
     40 H40        -3.6133   33.0421  -31.5729 H         1 UNK         0.0000 
     41 H41        -4.7457   31.2109  -32.6405 H         1 UNK         0.0000 
     42 H42        -6.1117   32.3846  -32.6475 H         1 UNK         0.0000 
@<TRIPOS>BOND
     1    1    2 ar   
     2    1    6 ar   
     3    1   21 1    
     4    2    3 ar   
     5    2   22 1    
     6    3    4 ar   
     7    3   20 1    
     8    4    5 ar   
     9    4    8 1    
    10    5    6 ar   
    11    5    7 1    
    12    6   23 1    
    13    8    9 2    
    14    8   10 am   BACKBONE|DICT|INTERRES
    15   10   11 1    
    16   10   24 1    
    17   11   12 ar   
    18   11   16 ar   
    19   12   13 ar   
    20   12   25 1    
    21   13   14 ar   
    22   13   26 1    
    23   14   15 ar   
    24   15   16 ar   
    25   15   17 1    
    26   16   27 1    
    27   17   18 am   BACKBONE|DICT|INTERRES
    28   17   28 1    
    29   18   19 2    
    30   18   30 1    
    31   29   30 1    
    32   30   31 1    
    33   30   34 1    
    34   31   32 1    
    35   31   35 1    
    36   31   36 1    
    37   32   33 1    
    38   32   37 1    
    39   32   38 1    
    40   33   34 1    
    41   33   39 1    
    42   33   40 1    
    43   34   41 1    
    44   34   42 1    
@<TRIPOS>SUBSTRUCTURE
     1 UNK         1 GROUP             0       ****    0 ROOT    
@<TRIPOS>MOLECULE
ejm_47
39   41    1
SMALL
USER_CHARGES


@<TRIPOS>ATOM
      1 C1         -1.9612   21.5502  -27.3300 C.ar      1 UNK         0.0000 
      2 C2         -1.2942   22.4120  -28.1957 C.ar      1 UNK         0.0000 
      3 C3         -1.9550   22.9520  -29.2938 C.ar      1 UNK         0.0000 
      4 C4         -3.2998   22.6223  -29.5426 C.ar      1 UNK         0.0000 
      5 C5         -3.9689   21.7588  -28.6534 C.ar      1 UNK         0.0000 
      6 C6         -3.2917   21.2292  -27.5624 C.ar      1 UNK         0.0000 
      7 Cl7        -5.6403   21.3533  -28.9190 Cl        1 UNK         0.0000 
      8 C8         -4.0401   23.1522  -30.7110 C.2       1 UNK         0.0000 
      9 O9         -4.2265   22.4198  -31.6685 O.2       1 UNK         0.0000 
     10 N10        -4.5133   24.4119  -30.6476 N.am      1 UNK         0.0000 
     11 C11        -5.2869   25.1112  -31.5800 C.ar      1 UNK         0.0000 
     12 C12        -5.9620   24.5479  -32.6807 C.ar      1 UNK         0.0000 
     13 C13        -6.7806   25.3609  -33.4589 C.ar      1 UNK         0.0000 
     14 N14        -6.9234   26.6542  -33.1828 N.ar      1 UNK         0.0000 
     15 C15        -6.2984   27.2317  -32.1577 C.ar      1 UNK         0.0000 
     16 C16        -5.5070   26.4571  -31.3066 C.ar      1 UNK         0.0000 
     17 N17        -6.5391   28.5828  -31.8838 N.am      1 UNK         0.0000 
     18 C18        -5.7134   29.4445  -31.2331 C.2       1 UNK         0.0000 
     19 O19        -4.6156   29.1218  -30.8098 O.2       1 UNK         0.0000 
     20 Cl20       -1.1124   24.0506  -30.3318 Cl        1 UNK         0.0000 
     21 H21        -1.4436   21.1321  -26.4786 H         1 UNK         0.0000 
     22 H22        -0.2591   22.6635  -28.0157 H         1 UNK         0.0000 
     23 H23        -3.8111   20.5610  -26.8909 H         1 UNK         0.0000 
     24 H24        -4.3168   24.9848  -29.8393 H         1 UNK         0.0000 
     25 H25        -5.8400   23.4993  -32.9094 H         1 UNK         0.0000 
     26 H26        -7.3119   24.9439  -34.3018 H         1 UNK         0.0000 
     27 H27        -5.0645   26.9093  -30.4313 H         1 UNK         0.0000 
     28 H28        -7.4045   29.0126  -32.1802 H         1 UNK         0.0000 
     29 C29        -6.2070   30.8552  -31.0259 C.3       1 UNK         0.0000 
     30 C30        -5.6712   31.4766  -29.7311 C.3       1 UNK         0.0000 
     31 C31        -4.5282   32.0864  -30.5505 C.3       1 UNK         0.0000 
     32 C32        -5.3815   31.8833  -31.8076 C.3       1 UNK         0.0000 
     33 H33        -6.3587   32.2529  -29.3152 H         1 UNK         0.0000 
     34 H34        -5.3503   30.7399  -28.9565 H         1 UNK         0.0000 
     35 H35        -4.2966   33.1512  -30.3093 H         1 UNK         0.0000 
     36 H36        -3.6135   31.4450  -30.5483 H         1 UNK         0.0000 
     37 H37        -5.9737   32.7930  -32.0718 H         1 UNK         0.0000 
     38 H38        -4.8299   31.4702  -32.6855 H         1 UNK         0.0000 
     39 H39        -7.2836   30.9672  -31.1542 H         1 UNK         0.0000 
@<TRIPOS>BOND
     1    1    2 ar   
     2    1    6 ar   
     3    1   21 1    
     4    2    3 ar   
     5    2   22 1    
     6    3    4 ar   
     7    3   20 1    
     8    4    5 ar   
     9    4    8 1    
    10    5    6 ar   
    11    5    7 1    
    12    6   23 1    
    13    8    9 2    
    14    8   10 am   BACKBONE|DICT|INTERRES
    15   10   11 1    
    16   10   24 1    
    17   11   12 ar   
    18   11   16 ar   
    19   12   13 ar   
    20   12   25 1    
    21   13   14 ar   
    22   13   26 1    
    23   14   15 ar   
    24   15   16 ar   
    25   15   17 1    
    26   16   27 1    
    27   17   18 am   BACKBONE|DICT|INTERRES
    28   17   28 1    
    29   18   19 2    
    30   18   29 1    
    31   29   30 1    
    32   29   32 1    
    33   29   39 1    
    34   30   31 1    
    35   30   33 1    
    36   30   34 1    
    37   31   32 1    
    38   31   35 1    
    39   31   36 1    
    40   32   37 1    
    41   32   38 1    
@<TRIPOS>SUBSTRUCTURE
     1 UNK         1 GROUP             0       ****    0 ROOT    
@<TRIPOS>MOLECULE
jmc_23
36   38    1
SMALL
USER_CHARGES


@<TRIPOS>ATOM
      1 C1         -1.9612   21.5502  -27.3300 C.ar      1 UNK         0.0000 
      2 C2         -1.2942   22.4120  -28.1957 C.ar      1 UNK         0.0000 
      3 C3         -1.9550   22.9520  -29.2938 C.ar      1 UNK         0.0000 
      4 C4         -3.2998   22.6223  -29.5426 C.ar      1 UNK         0.0000 
      5 C5         -3.9689   21.7588  -28.6534 C.ar      1 UNK         0.0000 
      6 C6         -3.2917   21.2292  -27.5624 C.ar      1 UNK         0.0000 
      7 Cl7        -5.6403   21.3533  -28.9190 Cl        1 UNK         0.0000 
      8 C8         -4.0401   23.1522  -30.7110 C.2       1 UNK         0.0000 
      9 O9         -4.2265   22.4198  -31.6685 O.2       1 UNK         0.0000 
     10 N10        -4.5133   24.4119  -30.6476 N.am      1 UNK         0.0000 
     11 C11        -5.2869   25.1112  -31.5800 C.ar      1 UNK         0.0000 
     12 C12        -5.9620   24.5479  -32.6807 C.ar      1 UNK         0.0000 
     13 C13        -6.7806   25.3609  -33.4589 C.ar      1 UNK         0.0000 
     14 N14        -6.9234   26.6542  -33.1828 N.ar      1 UNK         0.0000 
     15 C15        -6.2984   27.2317  -32.1577 C.ar      1 UNK         0.0000 
     16 C16        -5.5070   26.4571  -31.3066 C.ar      1 UNK         0.0000 
     17 N17        -6.5391   28.5828  -31.8838 N.am      1 UNK         0.0000 
     18 C18        -5.7134   29.4445  -31.2331 C.2       1 UNK         0.0000 
     19 O19        -4.6156   29.1218  -30.8098 O.2       1 UNK         0.0000 
     20 C20        -6.2319   30.8471  -31.0310 C.3       1 UNK         0.0000 
     21 C21        -5.5787   31.7462  -29.9763 C.3       1 UNK         0.0000 
     22 C22        -5.3636   32.0236  -31.4653 C.3       1 UNK         0.0000 
     23 F23        -4.1127   31.7229  -32.0057 F         1 UNK         0.0000 
     24 Cl24       -1.1124   24.0506  -30.3318 Cl        1 UNK         0.0000 
     25 H25        -7.3054   30.9413  -31.1624 H         1 UNK         0.0000 
     26 H26        -5.8627   32.8962  -31.8829 H         1 UNK         0.0000 
     27 H27        -1.4436   21.1321  -26.4786 H         1 UNK         0.0000 
     28 H28        -0.2591   22.6635  -28.0157 H         1 UNK         0.0000 
     29 H29        -3.8111   20.5610  -26.8909 H         1 UNK         0.0000 
     30 H30        -4.3168   24.9848  -29.8393 H         1 UNK         0.0000 
     31 H31        -5.8400   23.4993  -32.9094 H         1 UNK         0.0000 
     32 H32        -7.3119   24.9439  -34.3018 H         1 UNK         0.0000 
     33 H33        -5.0645   26.9093  -30.4313 H         1 UNK         0.0000 
     34 H34        -7.4045   29.0126  -32.1802 H         1 UNK         0.0000 
     35 H35        -6.3523   32.2035  -29.3584 H         1 UNK         0.0000 
     36 H36        -4.9174   31.1488  -29.3474 H         1 UNK         0.0000 
@<TRIPOS>BOND
     1    1    2 ar   
     2    1    6 ar   
     3    1   27 1    
     4    2    3 ar   
     5    2   28 1    
     6    3    4 ar   
     7    3   24 1    
     8    4    5 ar   
     9    4    8 1    
    10    5    6 ar   
    11    5    7 1    
    12    6   29 1    
    13    8    9 2    
    14    8   10 am   BACKBONE|DICT|INTERRES
    15   10   11 1    
    16   10   30 1    
    17   11   12 ar   
    18   11   16 ar   
    19   12   13 ar   
    20   12   31 1    
    21   13   14 ar   
    22   13   32 1    
    23   14   15 ar   
    24   15   16 ar   
    25   15   17 1    
    26   16   33 1    
    27   17   18 am   BACKBONE|DICT|INTERRES
    28   17   34 1    
    29   18   19 2    
    30   18   20 1    
    31   20   21 1    
    32   20   22 1    
    33   20   25 1    
    34   21   22 1    
    35   21   35 1    
    36   21   36 1    
    37   22   23 1    
    38   22   26 1    
@<TRIPOS>SUBSTRUCTURE
     1 UNK         1 GROUP             0       ****    0 ROOT    
@<TRIPOS>MOLECULE
ejm_42
35   36    1
SMALL
USER_CHARGES


@<TRIPOS>ATOM
      1 C1         -1.9612   21.5502  -27.3300 C.ar      1 UNK         0.0000 
      2 C2         -1.2942   22.4120  -28.1957 C.ar      1 UNK         0.0000 
      3 C3         -1.9550   22.9520  -29.2938 C.ar      1 UNK         0.0000 
      4 C4         -3.2998   22.6223  -29.5426 C.ar      1 UNK         0.0000 
      5 C5         -3.9689   21.7588  -28.6534 C.ar      1 UNK         0.0000 
      6 C6         -3.2917   21.2292  -27.5624 C.ar      1 UNK         0.0000 
      7 Cl7        -5.6403   21.3533  -28.9190 Cl        1 UNK         0.0000 
      8 C8         -4.0401   23.1522  -30.7110 C.2       1 UNK         0.0000 
      9 O9         -4.2265   22.4198  -31.6685 O.2       1 UNK         0.0000 
     10 N10        -4.5133   24.4119  -30.6476 N.am      1 UNK         0.0000 
     11 C11        -5.2869   25.1112  -31.5800 C.ar      1 UNK         0.0000 
     12 C12        -5.9620   24.5479  -32.6807 C.ar      1 UNK         0.0000 
     13 C13        -6.7806   25.3609  -33.4589 C.ar      1 UNK         0.0000 
     14 N14        -6.9234   26.6542  -33.1828 N.ar      1 UNK         0.0000 
     15 C15        -6.2984   27.2317  -32.1577 C.ar      1 UNK         0.0000 
     16 C16        -5.5070   26.4571  -31.3066 C.ar      1 UNK         0.0000 
     17 N17        -6.5391   28.5828  -31.8838 N.am      1 UNK         0.0000 
     18 C18        -5.7134   29.4445  -31.2331 C.2       1 UNK         0.0000 
     19 O19        -4.6156   29.1218  -30.8098 O.2       1 UNK         0.0000 
     20 C20        -6.2319   30.8471  -31.0310 C.3       1 UNK         0.0000 
     21 Cl21       -1.1124   24.0506  -30.3318 Cl        1 UNK         0.0000 
     22 H22        -6.7611   31.2474  -31.8901 H         1 UNK         0.0000 
     23 H23        -1.4436   21.1321  -26.4786 H         1 UNK         0.0000 
     24 H24        -0.2591   22.6635  -28.0157 H         1 UNK         0.0000 
     25 H25        -3.8111   20.5610  -26.8909 H         1 UNK         0.0000 
     26 H26        -4.3168   24.9848  -29.8393 H         1 UNK         0.0000 
     27 H27        -5.8400   23.4993  -32.9094 H         1 UNK         0.0000 
     28 H28        -7.3119   24.9439  -34.3018 H         1 UNK         0.0000 
     29 H29        -5.0645   26.9093  -30.4313 H         1 UNK         0.0000 
     30 H30        -7.4045   29.0126  -32.1802 H         1 UNK         0.0000 
     31 C31        -5.0894   31.7546  -30.6833 C.3       1 UNK         0.0000 
     32 H32        -6.8876   30.8681  -30.1605 H         1 UNK         0.0000 
     33 H33        -5.4617   32.7685  -30.5367 H         1 UNK         0.0000 
     34 H34        -4.6143   31.4065  -29.7661 H         1 UNK         0.0000 
     35 H35        -4.3607   31.7493  -31.4939 H         1 UNK         0.0000 
@<TRIPOS>BOND
     1    1    2 ar   
     2    1    6 ar   
     3    1   23 1    
     4    2    3 ar   
     5    2   24 1    
     6    3    4 ar   
     7    3   21 1    
     8    4    5 ar   
     9    4    8 1    
    10    5    6 ar   
    11    5    7 1    
    12    6   25 1    
    13    8    9 2    
    14    8   10 am   BACKBONE|DICT|INTERRES
    15   10   11 1    
    16   10   26 1    
    17   11   12 ar   
    18   11   16 ar   
    19   12   13 ar   
    20   12   27 1    
    21   13   14 ar   
    22   13   28 1    
    23   14   15 ar   
    24   15   16 ar   
    25   15   17 1    
    26   16   29 1    
    27   17   18 am   BACKBONE|DICT|INTERRES
    28   17   30 1    
    29   18   19 2    
    30   18   20 1    
    31   20   22 1    
    32   20   31 1    
    33   20   32 1    
    34   31   33 1    
    35   31   34 1    
    36   31   35 1    
@<TRIPOS>SUBSTRUCTURE
     1 UNK         1 GROUP             0       ****    0 ROOT    
@<TRIPOS>MOLECULE
ejm_31
32   33    1
SMALL
USER_CHARGES


@<TRIPOS>ATOM
      1 C1         -1.9612   21.5502  -27.3300 C.ar      1 UNK         0.0000 
      2 C2         -1.2942   22.4120  -28.1957 C.ar      1 UNK         0.0000 
      3 C3         -1.9550   22.9520  -29.2938 C.ar      1 UNK         0.0000 
      4 C4         -3.2998   22.6223  -29.5426 C.ar      1 UNK         0.0000 
      5 C5         -3.9689   21.7588  -28.6534 C.ar      1 UNK         0.0000 
      6 C6         -3.2917   21.2292  -27.5624 C.ar      1 UNK         0.0000 
      7 Cl7        -5.6403   21.3533  -28.9190 Cl        1 UNK         0.0000 
      8 C8         -4.0401   23.1522  -30.7110 C.2       1 UNK         0.0000 
      9 O9         -4.2265   22.4198  -31.6685 O.2       1 UNK         0.0000 
     10 N10        -4.5133   24.4119  -30.6476 N.am      1 UNK         0.0000 
     11 C11        -5.2869   25.1112  -31.5800 C.ar      1 UNK         0.0000 
     12 C12        -5.9620   24.5479  -32.6807 C.ar      1 UNK         0.0000 
     13 C13        -6.7806   25.3609  -33.4589 C.ar      1 UNK         0.0000 
     14 N14        -6.9234   26.6542  -33.1828 N.ar      1 UNK         0.0000 
     15 C15        -6.2984   27.2317  -32.1577 C.ar      1 UNK         0.0000 
     16 C16        -5.5070   26.4571  -31.3066 C.ar      1 UNK         0.0000 
     17 N17        -6.5391   28.5828  -31.8838 N.am      1 UNK         0.0000 
     18 C18        -5.7134   29.4445  -31.2331 C.2       1 UNK         0.0000 
     19 O19        -4.6156   29.1218  -30.8098 O.2       1 UNK         0.0000 
     20 C20        -6.2319   30.8471  -31.0310 C.3       1 UNK         0.0000 
     21 Cl21       -1.1124   24.0506  -30.3318 Cl        1 UNK         0.0000 
     22 H22        -7.3054   30.9413  -31.1624 H         1 UNK         0.0000 
     23 H23        -1.4436   21.1321  -26.4786 H         1 UNK         0.0000 
     24 H24        -0.2591   22.6635  -28.0157 H         1 UNK         0.0000 
     25 H25        -3.8111   20.5610  -26.8909 H         1 UNK         0.0000 
     26 H26        -4.3168   24.9848  -29.8393 H         1 UNK         0.0000 
     27 H27        -5.8400   23.4993  -32.9094 H         1 UNK         0.0000 
     28 H28        -7.3119   24.9439  -34.3018 H         1 UNK         0.0000 
     29 H29        -5.0645   26.9093  -30.4313 H         1 UNK         0.0000 
     30 H30        -7.4045   29.0126  -32.1802 H         1 UNK         0.0000 
     31 H31        -5.7229   31.5232  -31.7179 H         1 UNK         0.0000 
     32 H32        -5.9579   31.1937  -30.0346 H         1 UNK         0.0000 
@<TRIPOS>BOND
     1    1    2 ar   
     2    1    6 ar   
     3    1   23 1    
     4    2    3 ar   
     5    2   24 1    
     6    3    4 ar   
     7    3   21 1    
     8    4    5 ar   
     9    4    8 1    
    10    5    6 ar   
    11    5    7 1    
    12    6   25 1    
    13    8    9 2    
    14    8   10 am   BACKBONE|DICT|INTERRES
    15   10   11 1    
    16   10   26 1    
    17   11   12 ar   
    18   11   16 ar   
    19   12   13 ar   
    20   12   27 1    
    21   13   14 ar   
    22   13   28 1    
    23   14   15 ar   
    24   15   16 ar   
    25   15   17 1    
    26   16   29 1    
    27   17   18 am   BACKBONE|DICT|INTERRES
    28   17   30 1    
    29   18   19 2    
    30   18   20 1    
    31   20   22 1    
    32   20   31 1    
    33   20   32 1    
@<TRIPOS>SUBSTRUCTURE
     1 UNK         1 GROUP             0       ****    0 ROOT    
@<TRIPOS>MOLECULE
jmc_27
36   38    1
SMALL
USER_CHARGES


@<TRIPOS>ATOM
      1 C1         -1.9612   21.5502  -27.3300 C.ar      1 UNK         0.0000 
      2 C2         -1.2942   22.4120  -28.1957 C.ar      1 UNK         0.0000 
      3 C3         -1.9550   22.9520  -29.2938 C.ar      1 UNK         0.0000 
      4 C4         -3.2998   22.6223  -29.5426 C.ar      1 UNK         0.0000 
      5 C5         -3.9689   21.7588  -28.6534 C.ar      1 UNK         0.0000 
      6 C6         -3.2917   21.2292  -27.5624 C.ar      1 UNK         0.0000 
      7 Cl7        -5.6403   21.3533  -28.9190 Cl        1 UNK         0.0000 
      8 C8         -4.0401   23.1522  -30.7110 C.2       1 UNK         0.0000 
      9 O9         -4.2265   22.4198  -31.6685 O.2       1 UNK         0.0000 
     10 N10        -4.5133   24.4119  -30.6476 N.am      1 UNK         0.0000 
     11 C11        -5.2869   25.1112  -31.5800 C.ar      1 UNK         0.0000 
     12 C12        -5.9620   24.5479  -32.6807 C.ar      1 UNK         0.0000 
     13 C13        -6.7806   25.3609  -33.4589 C.ar      1 UNK         0.0000 
     14 N14        -6.9234   26.6542  -33.1828 N.ar      1 UNK         0.0000 
     15 C15        -6.2984   27.2317  -32.1577 C.ar      1 UNK         0.0000 
     16 C16        -5.5070   26.4571  -31.3066 C.ar      1 UNK         0.0000 
     17 N17        -6.5391   28.5828  -31.8838 N.am      1 UNK         0.0000 
     18 C18        -5.7134   29.4445  -31.2331 C.2       1 UNK         0.0000 
     19 O19        -4.6156   29.1218  -30.8098 O.2       1 UNK         0.0000 
     20 C20        -6.2319   30.8471  -31.0310 C.3       1 UNK         0.0000 
     21 C21        -5.5787   31.7462  -29.9763 C.3       1 UNK         0.0000 
     22 C22        -5.3636   32.0236  -31.4653 C.3       1 UNK         0.0000 
     23 Cl23       -3.7545   31.6367  -32.1604 Cl        1 UNK         0.0000 
     24 Cl24       -1.1124   24.0506  -30.3318 Cl        1 UNK         0.0000 
     25 H25        -7.3054   30.9413  -31.1624 H         1 UNK         0.0000 
     26 H26        -5.8627   32.8962  -31.8829 H         1 UNK         0.0000 
     27 H27        -1.4436   21.1321  -26.4786 H         1 UNK         0.0000 
     28 H28        -0.2591   22.6635  -28.0157 H         1 UNK         0.0000 
     29 H29        -3.8111   20.5610  -26.8909 H         1 UNK         0.0000 
     30 H30        -4.3168   24.9848  -29.8393 H         1 UNK         0.0000 
     31 H31        -5.8400   23.4993  -32.9094 H         1 UNK         0.0000 
     32 H32        -7.3119   24.9439  -34.3018 H         1 UNK         0.0000 
     33 H33        -5.0645   26.9093  -30.4313 H         1 UNK         0.0000 
     34 H34        -7.4045   29.0126  -32.1802 H         1 UNK         0.0000 
     35 H35        -6.3523   32.2035  -29.3584 H         1 UNK         0.0000 
     36 H36        -4.9174   31.1488  -29.3474 H         1 UNK         0.0000 
@<TRIPOS>BOND
     1    1    2 ar   
     2    1    6 ar   
     3    1   27 1    
     4    2    3 ar   
     5    2   28 1    
     6    3    4 ar   
     7    3   24 1    
     8    4    5 ar   
     9    4    8 1    
    10    5    6 ar   
    11    5    7 1    
    12    6   29 1    
    13    8    9 2    
    14    8   10 am   BACKBONE|DICT|INTERRES
    15   10   11 1    
    16   10   30 1    
    17   11   12 ar   
    18   11   16 ar   
    19   12   13 ar   
    20   12   31 1    
    21   13   14 ar   
    22   13   32 1    
    23   14   15 ar   
    24   15   16 ar   
    25   15   17 1    
    26   16   33 1    
    27   17   18 am   BACKBONE|DICT|INTERRES
    28   17   34 1    
    29   18   19 2    
    30   18   20 1    
    31   20   21 1    
    32   20   22 1    
    33   20   25 1    
    34   21   22 1    
    35   21   35 1    
    36   21   36 1    
    37   22   23 1    
    38   22   26 1    
@<TRIPOS>SUBSTRUCTURE
     1 UNK         1 GROUP             0       ****    0 ROOT    
@<TRIPOS>MOLECULE
ejm_54
37   38    1
SMALL
USER_CHARGES


@<TRIPOS>ATOM
      1 C1         -1.9612   21.5502  -27.3300 C.ar      1 UNK         0.0000 
      2 C2         -1.2942   22.4120  -28.1957 C.ar      1 UNK         0.0000 
      3 C3         -1.9550   22.9520  -29.2938 C.ar      1 UNK         0.0000 
      4 C4         -3.2998   22.6223  -29.5426 C.ar      1 UNK         0.0000 
      5 C5         -3.9689   21.7588  -28.6534 C.ar      1 UNK         0.0000 
      6 C6         -3.2917   21.2292  -27.5624 C.ar      1 UNK         0.0000 
      7 Cl7        -5.6403   21.3533  -28.9190 Cl        1 UNK         0.0000 
      8 C8         -4.0401   23.1522  -30.7110 C.2       1 UNK         0.0000 
      9 O9         -4.2265   22.4198  -31.6685 O.2       1 UNK         0.0000 
     10 N10        -4.5133   24.4119  -30.6476 N.am      1 UNK         0.0000 
     11 C11        -5.2869   25.1112  -31.5800 C.ar      1 UNK         0.0000 
     12 C12        -5.9620   24.5479  -32.6807 C.ar      1 UNK         0.0000 
     13 C13        -6.7806   25.3609  -33.4589 C.ar      1 UNK         0.0000 
     14 N14        -6.9234   26.6542  -33.1828 N.ar      1 UNK         0.0000 
     15 C15        -6.2984   27.2317  -32.1577 C.ar      1 UNK         0.0000 
     16 C16        -5.5070   26.4571  -31.3066 C.ar      1 UNK         0.0000 
     17 N17        -6.5391   28.5828  -31.8838 N.am      1 UNK         0.0000 
     18 C18        -5.7134   29.4445  -31.2331 C.2       1 UNK         0.0000 
     19 O19        -4.6156   29.1218  -30.8098 O.2       1 UNK         0.0000 
     20 Cl20       -1.1124   24.0506  -30.3318 Cl        1 UNK         0.0000 
     21 H21        -1.4436   21.1321  -26.4786 H         1 UNK         0.0000 
     22 H22        -0.2591   22.6635  -28.0157 H         1 UNK         0.0000 
     23 H23        -3.8111   20.5610  -26.8909 H         1 UNK         0.0000 
     24 H24        -4.3168   24.9848  -29.8393 H         1 UNK         0.0000 
     25 H25        -5.8400   23.4993  -32.9094 H         1 UNK         0.0000 
     26 H26        -7.3119   24.9439  -34.3018 H         1 UNK         0.0000 
     27 H27        -5.0645   26.9093  -30.4313 H         1 UNK         0.0000 
     28 H28        -7.4045   29.0126  -32.1802 H         1 UNK         0.0000 
     29 C29        -5.1871   31.8542  -30.6778 C.3       1 UNK         0.0000 
     30 H30        -5.5878   32.8578  -30.8199 H         1 UNK         0.0000 
     31 H31        -4.9066   31.7200  -29.6331 H         1 UNK         0.0000 
     32 C32        -3.9781   31.6716  -31.5468 C.3       1 UNK         0.0000 
     33 N33        -6.1554   30.8245  -31.0242 N.am      1 UNK         0.0000 
     34 H34        -7.1324   31.0619  -31.1205 H         1 UNK         0.0000 
     35 H35        -3.5766   30.6681  -31.4054 H         1 UNK         0.0000 
     36 H36        -4.2573   31.8068  -32.5917 H         1 UNK         0.0000 
     37 H37        -3.2207   32.4070  -31.2756 H         1 UNK         0.0000 
@<TRIPOS>BOND
     1    1    2 ar   
     2    1    6 ar   
     3    1   21 1    
     4    2    3 ar   
     5    2   22 1    
     6    3    4 ar   
     7    3   20 1    
     8    4    5 ar   
     9    4    8 1    
    10    5    6 ar   
    11    5    7 1    
    12    6   23 1    
    13    8    9 2    
    14    8   10 am   BACKBONE|DICT|INTERRES
    15   10   11 1    
    16   10   24 1    
    17   11   12 ar   
    18   11   16 ar   
    19   12   13 ar   
    20   12   25 1    
    21   13   14 ar   
    22   13   26 1    
    23   14   15 ar   
    24   15   16 ar   
    25   15   17 1    
    26   16   27 1    
    27   17   18 am   BACKBONE|DICT|INTERRES
    28   17   28 1    
    29   18   19 2    
    30   18   33 am   BACKBONE|DICT|INTERRES
    31   29   30 1    
    32   29   31 1    
    33   29   32 1    
    34   29   33 1    
    35   32   35 1    
    36   32   36 1    
    37   32   37 1    
    38   33   34 1    
@<TRIPOS>SUBSTRUCTURE
     1 UNK         1 GROUP             0       ****    0 ROOT    
