@<TRIPOS>MOLECULE
ejm_31
32   33   0
SMALL
NO_CHARGES


@<TRIPOS>ATOM
      1 C1         -1.9612   21.5502  -27.3300 C.ar      1 UNK        -0.2144
      2 C2         -1.2942   22.4120  -28.1957 C.ar      1 UNK         0.0395
      3 C3         -1.9550   22.9520  -29.2938 C.ar      1 UNK        -0.1757
      4 C4         -3.2998   22.6223  -29.5426 C.ar      1 UNK         0.2506
      5 C5         -3.9689   21.7588  -28.6534 C.ar      1 UNK        -0.1947
      6 C6         -3.2917   21.2292  -27.5624 C.ar      1 UNK         0.0530
      7 Cl7        -5.6403   21.3533  -28.9190 Cl        1 UNK        -0.0568
      8 C8         -4.0401   23.1522  -30.7110 C.2       1 UNK         0.5116
      9 O9         -4.2265   22.4198  -31.6685 O.2       1 UNK        -0.5598
     10 N10        -4.5133   24.4119  -30.6476 N.am      1 UNK        -0.6071
     11 C11        -5.2869   25.1112  -31.5800 C.ar      1 UNK         0.7946
     12 C12        -5.9620   24.5479  -32.6807 C.ar      1 UNK        -0.6528
     13 C13        -6.7806   25.3609  -33.4589 C.ar      1 UNK         0.4034
     14 N14        -6.9234   26.6542  -33.1828 N.ar      1 UNK        -0.8210
     15 C15        -6.2984   27.2317  -32.1577 C.ar      1 UNK         1.0536
     16 C16        -5.5070   26.4571  -31.3066 C.ar      1 UNK        -0.9458
     17 N17        -6.5391   28.5828  -31.8838 N.am      1 UNK        -0.8190
     18 C18        -5.7134   29.4445  -31.2331 C.2       1 UNK         0.8355
     19 O19        -4.6156   29.1218  -30.8098 O.2       1 UNK        -0.6470
     20 C20        -6.2319   30.8471  -31.0310 C.3       1 UNK        -0.5728
     21 Cl21       -1.1124   24.0506  -30.3318 Cl        1 UNK        -0.0634
     22 H22        -7.3054   30.9413  -31.1624 H         1 UNK         0.1839
     23 H23        -1.4436   21.1321  -26.4786 H         1 UNK         0.1777
     24 H24        -0.2591   22.6635  -28.0157 H         1 UNK         0.1175
     25 H25        -3.8111   20.5610  -26.8909 H         1 UNK         0.1147
     26 H26        -4.3168   24.9848  -29.8393 H         1 UNK         0.3732
     27 H27        -5.8400   23.4993  -32.9094 H         1 UNK         0.2677
     28 H28        -7.3119   24.9439  -34.3018 H         1 UNK         0.0706
     29 H29        -5.0645   26.9093  -30.4313 H         1 UNK         0.3406
     30 H30        -7.4045   29.0126  -32.1802 H         1 UNK         0.4069
     31 H31        -5.7229   31.5232  -31.7179 H         1 UNK         0.1857
     32 H32        -5.9579   31.1937  -30.0346 H         1 UNK         0.1499
@<TRIPOS>BOND
     1    1    2 ar   
     2    1    6 ar   
     3    1   23 1    
     4    2    3 ar   
     5    2   24 1    
     6    3    4 ar   
     7    3   21 1    
     8    4    5 ar   
     9    4    8 1    
    10    5    6 ar   
    11    5    7 1    
    12    6   25 1    
    13    8    9 2    
    14    8   10 am   
    15   10   11 1    
    16   10   26 1    
    17   11   12 ar   
    18   11   16 ar   
    19   12   13 ar   
    20   12   27 1    
    21   13   14 ar   
    22   13   28 1    
    23   14   15 ar   
    24   15   16 ar   
    25   15   17 1    
    26   16   29 1    
    27   17   18 am   
    28   17   30 1    
    29   18   19 2    
    30   18   20 1    
    31   20   22 1    
    32   20   31 1    
    33   20   32 1    
@<TRIPOS>SUBSTRUCTURE
@<TRIPOS>MOLECULE
ejm_42
35   36   0
SMALL
NO_CHARGES


@<TRIPOS>ATOM
      1 C1         -1.9612   21.5502  -27.3300 C.ar      1 UNK        -0.2089
      2 C2         -1.2942   22.4120  -28.1957 C.ar      1 UNK         0.0367
      3 C3         -1.9550   22.9520  -29.2938 C.ar      1 UNK        -0.1712
      4 C4         -3.2998   22.6223  -29.5426 C.ar      1 UNK         0.2379
      5 C5         -3.9689   21.7588  -28.6534 C.ar      1 UNK        -0.1857
      6 C6         -3.2917   21.2292  -27.5624 C.ar      1 UNK         0.0484
      7 Cl7        -5.6403   21.3533  -28.9190 Cl        1 UNK        -0.0570
      8 C8         -4.0401   23.1522  -30.7110 C.2       1 UNK         0.4909
      9 O9         -4.2265   22.4198  -31.6685 O.2       1 UNK        -0.5554
     10 N10        -4.5133   24.4119  -30.6476 N.am      1 UNK        -0.5764
     11 C11        -5.2869   25.1112  -31.5800 C.ar      1 UNK         0.7641
     12 C12        -5.9620   24.5479  -32.6807 C.ar      1 UNK        -0.6192
     13 C13        -6.7806   25.3609  -33.4589 C.ar      1 UNK         0.3612
     14 N14        -6.9234   26.6542  -33.1828 N.ar      1 UNK        -0.8022
     15 C15        -6.2984   27.2317  -32.1577 C.ar      1 UNK         1.1017
     16 C16        -5.5070   26.4571  -31.3066 C.ar      1 UNK        -0.9542
     17 N17        -6.5391   28.5828  -31.8838 N.am      1 UNK        -0.8785
     18 C18        -5.7134   29.4445  -31.2331 C.2       1 UNK         0.7843
     19 O19        -4.6156   29.1218  -30.8098 O.2       1 UNK        -0.6202
     20 C20        -6.2319   30.8471  -31.0310 C.3       1 UNK        -0.1118
     21 Cl21       -1.1124   24.0506  -30.3318 Cl        1 UNK        -0.0614
     22 H22        -6.7611   31.2474  -31.8901 H         1 UNK         0.0903
     23 H23        -1.4436   21.1321  -26.4786 H         1 UNK         0.1765
     24 H24        -0.2591   22.6635  -28.0157 H         1 UNK         0.1177
     25 H25        -3.8111   20.5610  -26.8909 H         1 UNK         0.1152
     26 H26        -4.3168   24.9848  -29.8393 H         1 UNK         0.3751
     27 H27        -5.8400   23.4993  -32.9094 H         1 UNK         0.2614
     28 H28        -7.3119   24.9439  -34.3018 H         1 UNK         0.0806
     29 H29        -5.0645   26.9093  -30.4313 H         1 UNK         0.3283
     30 H30        -7.4045   29.0126  -32.1802 H         1 UNK         0.3935
     31 C31        -5.0894   31.7546  -30.6833 C.3       1 UNK        -0.2991
     32 H32        -6.8876   30.8681  -30.1605 H         1 UNK         0.0818
     33 H33        -5.4617   32.7685  -30.5367 H         1 UNK         0.0987
     34 H34        -4.6143   31.4065  -29.7661 H         1 UNK         0.0763
     35 H35        -4.3607   31.7493  -31.4939 H         1 UNK         0.0806
@<TRIPOS>BOND
     1    1    2 ar   
     2    1    6 ar   
     3    1   23 1    
     4    2    3 ar   
     5    2   24 1    
     6    3    4 ar   
     7    3   21 1    
     8    4    5 ar   
     9    4    8 1    
    10    5    6 ar   
    11    5    7 1    
    12    6   25 1    
    13    8    9 2    
    14    8   10 am   
    15   10   11 1    
    16   10   26 1    
    17   11   12 ar   
    18   11   16 ar   
    19   12   13 ar   
    20   12   27 1    
    21   13   14 ar   
    22   13   28 1    
    23   14   15 ar   
    24   15   16 ar   
    25   15   17 1    
    26   16   29 1    
    27   17   18 am   
    28   17   30 1    
    29   18   19 2    
    30   18   20 1    
    31   20   22 1    
    32   20   31 1    
    33   20   32 1    
    34   31   33 1    
    35   31   34 1    
    36   31   35 1    
@<TRIPOS>SUBSTRUCTURE
@<TRIPOS>MOLECULE
ejm_43
38   39   0
SMALL
NO_CHARGES


@<TRIPOS>ATOM
      1 C1         -1.9612   21.5502  -27.3300 C.ar      1 UNK        -0.2080
      2 C2         -1.2942   22.4120  -28.1957 C.ar      1 UNK         0.0361
      3 C3         -1.9550   22.9520  -29.2938 C.ar      1 UNK        -0.1661
      4 C4         -3.2998   22.6223  -29.5426 C.ar      1 UNK         0.2230
      5 C5         -3.9689   21.7588  -28.6534 C.ar      1 UNK        -0.1779
      6 C6         -3.2917   21.2292  -27.5624 C.ar      1 UNK         0.0452
      7 Cl7        -5.6403   21.3533  -28.9190 Cl        1 UNK        -0.0583
      8 C8         -4.0401   23.1522  -30.7110 C.2       1 UNK         0.4987
      9 O9         -4.2265   22.4198  -31.6685 O.2       1 UNK        -0.5577
     10 N10        -4.5133   24.4119  -30.6476 N.am      1 UNK        -0.5589
     11 C11        -5.2869   25.1112  -31.5800 C.ar      1 UNK         0.7285
     12 C12        -5.9620   24.5479  -32.6807 C.ar      1 UNK        -0.6007
     13 C13        -6.7806   25.3609  -33.4589 C.ar      1 UNK         0.3533
     14 N14        -6.9234   26.6542  -33.1828 N.ar      1 UNK        -0.8028
     15 C15        -6.2984   27.2317  -32.1577 C.ar      1 UNK         1.1003
     16 C16        -5.5070   26.4571  -31.3066 C.ar      1 UNK        -0.9272
     17 N17        -6.5391   28.5828  -31.8838 N.am      1 UNK        -0.8749
     18 C18        -5.7134   29.4445  -31.2331 C.2       1 UNK         0.7085
     19 O19        -4.6156   29.1218  -30.8098 O.2       1 UNK        -0.6041
     20 C20        -6.2319   30.8471  -31.0310 C.3       1 UNK         0.1702
     21 Cl21       -1.1124   24.0506  -30.3318 Cl        1 UNK        -0.0619
     22 C22        -6.9632   31.4003  -32.2181 C.3       1 UNK        -0.3352
     23 H23        -1.4436   21.1321  -26.4786 H         1 UNK         0.1761
     24 H24        -0.2591   22.6635  -28.0157 H         1 UNK         0.1173
     25 H25        -3.8111   20.5610  -26.8909 H         1 UNK         0.1157
     26 H26        -4.3168   24.9848  -29.8393 H         1 UNK         0.3707
     27 H27        -5.8400   23.4993  -32.9094 H         1 UNK         0.2572
     28 H28        -7.3119   24.9439  -34.3018 H         1 UNK         0.0827
     29 H29        -5.0645   26.9093  -30.4313 H         1 UNK         0.3241
     30 H30        -7.4045   29.0126  -32.1802 H         1 UNK         0.4006
     31 C31        -5.0894   31.7546  -30.6833 C.3       1 UNK        -0.4772
     32 H32        -6.8876   30.8681  -30.1605 H         1 UNK         0.0468
     33 H33        -5.4617   32.7685  -30.5367 H         1 UNK         0.1437
     34 H34        -4.6143   31.4065  -29.7661 H         1 UNK         0.1048
     35 H35        -4.3607   31.7493  -31.4939 H         1 UNK         0.1176
     36 H36        -7.3052   32.4111  -31.9961 H         1 UNK         0.1008
     37 H37        -6.2945   31.4242  -33.0786 H         1 UNK         0.0979
     38 H38        -7.8219   30.7680  -32.4435 H         1 UNK         0.0910
@<TRIPOS>BOND
     1    1    2 ar   
     2    1    6 ar   
     3    1   23 1    
     4    2    3 ar   
     5    2   24 1    
     6    3    4 ar   
     7    3   21 1    
     8    4    5 ar   
     9    4    8 1    
    10    5    6 ar   
    11    5    7 1    
    12    6   25 1    
    13    8    9 2    
    14    8   10 am   
    15   10   11 1    
    16   10   26 1    
    17   11   12 ar   
    18   11   16 ar   
    19   12   13 ar   
    20   12   27 1    
    21   13   14 ar   
    22   13   28 1    
    23   14   15 ar   
    24   15   16 ar   
    25   15   17 1    
    26   16   29 1    
    27   17   18 am   
    28   17   30 1    
    29   18   19 2    
    30   18   20 1    
    31   20   22 1    
    32   20   31 1    
    33   20   32 1    
    34   22   36 1    
    35   22   37 1    
    36   22   38 1    
    37   31   33 1    
    38   31   34 1    
    39   31   35 1    
@<TRIPOS>SUBSTRUCTURE
@<TRIPOS>MOLECULE
ejm_44
41   42   0
SMALL
NO_CHARGES


@<TRIPOS>ATOM
      1 C1         -1.9612   21.5502  -27.3300 C.ar      1 UNK        -0.2078
      2 C2         -1.2942   22.4120  -28.1957 C.ar      1 UNK         0.0344
      3 C3         -1.9550   22.9520  -29.2938 C.ar      1 UNK        -0.1670
      4 C4         -3.2998   22.6223  -29.5426 C.ar      1 UNK         0.2351
      5 C5         -3.9689   21.7588  -28.6534 C.ar      1 UNK        -0.1841
      6 C6         -3.2917   21.2292  -27.5624 C.ar      1 UNK         0.0478
      7 Cl7        -5.6403   21.3533  -28.9190 Cl        1 UNK        -0.0569
      8 C8         -4.0401   23.1522  -30.7110 C.2       1 UNK         0.4865
      9 O9         -4.2265   22.4198  -31.6685 O.2       1 UNK        -0.5537
     10 N10        -4.5133   24.4119  -30.6476 N.am      1 UNK        -0.5675
     11 C11        -5.2869   25.1112  -31.5800 C.ar      1 UNK         0.7571
     12 C12        -5.9620   24.5479  -32.6807 C.ar      1 UNK        -0.6143
     13 C13        -6.7806   25.3609  -33.4589 C.ar      1 UNK         0.3595
     14 N14        -6.9234   26.6542  -33.1828 N.ar      1 UNK        -0.7994
     15 C15        -6.2984   27.2317  -32.1577 C.ar      1 UNK         1.0914
     16 C16        -5.5070   26.4571  -31.3066 C.ar      1 UNK        -0.9488
     17 N17        -6.5391   28.5828  -31.8838 N.am      1 UNK        -0.8628
     18 C18        -5.7134   29.4445  -31.2331 C.2       1 UNK         0.7261
     19 O19        -4.6156   29.1218  -30.8098 O.2       1 UNK        -0.6289
     20 C20        -6.2319   30.8471  -31.0310 C.3       1 UNK         0.3986
     21 Cl21       -1.1124   24.0506  -30.3318 Cl        1 UNK        -0.0624
     22 C22        -6.9632   31.4003  -32.2181 C.3       1 UNK        -0.4812
     23 H23        -1.4436   21.1321  -26.4786 H         1 UNK         0.1764
     24 H24        -0.2591   22.6635  -28.0157 H         1 UNK         0.1180
     25 H25        -3.8111   20.5610  -26.8909 H         1 UNK         0.1154
     26 H26        -4.3168   24.9848  -29.8393 H         1 UNK         0.3716
     27 H27        -5.8400   23.4993  -32.9094 H         1 UNK         0.2598
     28 H28        -7.3119   24.9439  -34.3018 H         1 UNK         0.0815
     29 H29        -5.0645   26.9093  -30.4313 H         1 UNK         0.3360
     30 H30        -7.4045   29.0126  -32.1802 H         1 UNK         0.3806
     31 C31        -5.0894   31.7546  -30.6833 C.3       1 UNK        -0.4620
     32 C32        -7.1343   30.8760  -29.8331 C.3       1 UNK        -0.4765
     33 H33        -5.4617   32.7685  -30.5367 H         1 UNK         0.1298
     34 H34        -4.6143   31.4065  -29.7661 H         1 UNK         0.1056
     35 H35        -4.3607   31.7493  -31.4939 H         1 UNK         0.1028
     36 H36        -7.3052   32.4111  -31.9961 H         1 UNK         0.1375
     37 H37        -6.2945   31.4242  -33.0786 H         1 UNK         0.1183
     38 H38        -7.8219   30.7680  -32.4435 H         1 UNK         0.1263
     39 H39        -7.5101   31.8884  -29.6851 H         1 UNK         0.1370
     40 H40        -7.9724   30.1975  -29.9924 H         1 UNK         0.1245
     41 H41        -6.5770   30.5632  -28.9501 H         1 UNK         0.1155
@<TRIPOS>BOND
     1    1    2 ar   
     2    1    6 ar   
     3    1   23 1    
     4    2    3 ar   
     5    2   24 1    
     6    3    4 ar   
     7    3   21 1    
     8    4    5 ar   
     9    4    8 1    
    10    5    6 ar   
    11    5    7 1    
    12    6   25 1    
    13    8    9 2    
    14    8   10 am   
    15   10   11 1    
    16   10   26 1    
    17   11   12 ar   
    18   11   16 ar   
    19   12   13 ar   
    20   12   27 1    
    21   13   14 ar   
    22   13   28 1    
    23   14   15 ar   
    24   15   16 ar   
    25   15   17 1    
    26   16   29 1    
    27   17   18 am   
    28   17   30 1    
    29   18   19 2    
    30   18   20 1    
    31   20   22 1    
    32   20   31 1    
    33   20   32 1    
    34   22   36 1    
    35   22   37 1    
    36   22   38 1    
    37   31   33 1    
    38   31   34 1    
    39   31   35 1    
    40   32   39 1    
    41   32   40 1    
    42   32   41 1    
@<TRIPOS>SUBSTRUCTURE
@<TRIPOS>MOLECULE
ejm_45
39   41   0
SMALL
NO_CHARGES


@<TRIPOS>ATOM
      1 C1         -1.9612   21.5502  -27.3300 C.ar      1 UNK        -0.2104
      2 C2         -1.2942   22.4120  -28.1957 C.ar      1 UNK         0.0373
      3 C3         -1.9550   22.9520  -29.2938 C.ar      1 UNK        -0.1716
      4 C4         -3.2998   22.6223  -29.5426 C.ar      1 UNK         0.2424
      5 C5         -3.9689   21.7588  -28.6534 C.ar      1 UNK        -0.1889
      6 C6         -3.2917   21.2292  -27.5624 C.ar      1 UNK         0.0491
      7 Cl7        -5.6403   21.3533  -28.9190 Cl        1 UNK        -0.0571
      8 C8         -4.0401   23.1522  -30.7110 C.2       1 UNK         0.5053
      9 O9         -4.2265   22.4198  -31.6685 O.2       1 UNK        -0.5584
     10 N10        -4.5133   24.4119  -30.6476 N.am      1 UNK        -0.5887
     11 C11        -5.2869   25.1112  -31.5800 C.ar      1 UNK         0.7616
     12 C12        -5.9620   24.5479  -32.6807 C.ar      1 UNK        -0.6188
     13 C13        -6.7806   25.3609  -33.4589 C.ar      1 UNK         0.3747
     14 N14        -6.9234   26.6542  -33.1828 N.ar      1 UNK        -0.8048
     15 C15        -6.2984   27.2317  -32.1577 C.ar      1 UNK         1.0547
     16 C16        -5.5070   26.4571  -31.3066 C.ar      1 UNK        -0.9278
     17 N17        -6.5391   28.5828  -31.8838 N.am      1 UNK        -0.7990
     18 C18        -5.7134   29.4445  -31.2331 C.2       1 UNK         0.8405
     19 O19        -4.6156   29.1218  -30.8098 O.2       1 UNK        -0.6248
     20 C20        -6.2319   30.8471  -31.0310 C.3       1 UNK        -0.5737
     21 Cl21       -1.1124   24.0506  -30.3318 Cl        1 UNK        -0.0618
     22 H22        -6.7611   31.2474  -31.8901 H         1 UNK         0.1989
     23 H23        -1.4436   21.1321  -26.4786 H         1 UNK         0.1769
     24 H24        -0.2591   22.6635  -28.0157 H         1 UNK         0.1171
     25 H25        -3.8111   20.5610  -26.8909 H         1 UNK         0.1155
     26 H26        -4.3168   24.9848  -29.8393 H         1 UNK         0.3720
     27 H27        -5.8400   23.4993  -32.9094 H         1 UNK         0.2620
     28 H28        -7.3119   24.9439  -34.3018 H         1 UNK         0.0782
     29 H29        -5.0645   26.9093  -30.4313 H         1 UNK         0.3340
     30 H30        -7.4045   29.0126  -32.1802 H         1 UNK         0.3905
     31 H31        -6.8876   30.8681  -30.1605 H         1 UNK         0.1714
     32 H32        -5.4617   32.7685  -30.5367 H         1 UNK         0.1291
     33 C33        -5.1449   31.7586  -30.6906 C.3       1 UNK         0.0512
     34 C34        -4.0146   31.2150  -29.8569 C.3       1 UNK        -0.3318
     35 C35        -3.7999   31.5051  -31.3190 C.3       1 UNK        -0.3207
     36 H36        -3.5458   31.9321  -29.1428 H         1 UNK         0.1434
     37 H37        -4.0876   30.1375  -29.5784 H         1 UNK         0.1454
     38 H38        -3.1919   32.4103  -31.5532 H         1 UNK         0.1383
     39 H39        -3.7337   30.6157  -31.9888 H         1 UNK         0.1489
@<TRIPOS>BOND
     1    1    2 ar   
     2    1    6 ar   
     3    1   23 1    
     4    2    3 ar   
     5    2   24 1    
     6    3    4 ar   
     7    3   21 1    
     8    4    5 ar   
     9    4    8 1    
    10    5    6 ar   
    11    5    7 1    
    12    6   25 1    
    13    8    9 2    
    14    8   10 am   
    15   10   11 1    
    16   10   26 1    
    17   11   12 ar   
    18   11   16 ar   
    19   12   13 ar   
    20   12   27 1    
    21   13   14 ar   
    22   13   28 1    
    23   14   15 ar   
    24   15   16 ar   
    25   15   17 1    
    26   16   29 1    
    27   17   18 am   
    28   17   30 1    
    29   18   19 2    
    30   18   20 1    
    31   20   22 1    
    32   20   31 1    
    33   20   33 1    
    34   32   33 1    
    35   33   34 1    
    36   33   35 1    
    37   34   35 1    
    38   34   36 1    
    39   34   37 1    
    40   35   38 1    
    41   35   39 1    
@<TRIPOS>SUBSTRUCTURE
@<TRIPOS>MOLECULE
ejm_46
36   38   0
SMALL
NO_CHARGES


@<TRIPOS>ATOM
      1 C1         -1.9612   21.5502  -27.3300 C.ar      1 UNK        -0.2129
      2 C2         -1.2942   22.4120  -28.1957 C.ar      1 UNK         0.0382
      3 C3         -1.9550   22.9520  -29.2938 C.ar      1 UNK        -0.1748
      4 C4         -3.2998   22.6223  -29.5426 C.ar      1 UNK         0.2437
      5 C5         -3.9689   21.7588  -28.6534 C.ar      1 UNK        -0.1922
      6 C6         -3.2917   21.2292  -27.5624 C.ar      1 UNK         0.0513
      7 Cl7        -5.6403   21.3533  -28.9190 Cl        1 UNK        -0.0571
      8 C8         -4.0401   23.1522  -30.7110 C.2       1 UNK         0.5134
      9 O9         -4.2265   22.4198  -31.6685 O.2       1 UNK        -0.5609
     10 N10        -4.5133   24.4119  -30.6476 N.am      1 UNK        -0.6159
     11 C11        -5.2869   25.1112  -31.5800 C.ar      1 UNK         0.7874
     12 C12        -5.9620   24.5479  -32.6807 C.ar      1 UNK        -0.6347
     13 C13        -6.7806   25.3609  -33.4589 C.ar      1 UNK         0.3670
     14 N14        -6.9234   26.6542  -33.1828 N.ar      1 UNK        -0.7882
     15 C15        -6.2984   27.2317  -32.1577 C.ar      1 UNK         1.0300
     16 C16        -5.5070   26.4571  -31.3066 C.ar      1 UNK        -0.9056
     17 N17        -6.5391   28.5828  -31.8838 N.am      1 UNK        -0.7856
     18 C18        -5.7134   29.4445  -31.2331 C.2       1 UNK         0.7826
     19 O19        -4.6156   29.1218  -30.8098 O.2       1 UNK        -0.5727
     20 C20        -6.2319   30.8471  -31.0310 C.3       1 UNK        -0.3652
     21 C21        -5.5787   31.7462  -29.9763 C.3       1 UNK        -0.2649
     22 C22        -5.3636   32.0236  -31.4653 C.3       1 UNK        -0.2536
     23 H23        -4.3865   31.7887  -31.8874 H         1 UNK         0.1295
     24 Cl24       -1.1124   24.0506  -30.3318 Cl        1 UNK        -0.0624
     25 H25        -7.3054   30.9413  -31.1624 H         1 UNK         0.2337
     26 H26        -5.8627   32.8962  -31.8829 H         1 UNK         0.1667
     27 H27        -1.4436   21.1321  -26.4786 H         1 UNK         0.1773
     28 H28        -0.2591   22.6635  -28.0157 H         1 UNK         0.1176
     29 H29        -3.8111   20.5610  -26.8909 H         1 UNK         0.1152
     30 H30        -4.3168   24.9848  -29.8393 H         1 UNK         0.3908
     31 H31        -5.8400   23.4993  -32.9094 H         1 UNK         0.2663
     32 H32        -7.3119   24.9439  -34.3018 H         1 UNK         0.0782
     33 H33        -5.0645   26.9093  -30.4313 H         1 UNK         0.2845
     34 H34        -7.4045   29.0126  -32.1802 H         1 UNK         0.3711
     35 H35        -6.3523   32.2035  -29.3584 H         1 UNK         0.1685
     36 H36        -4.9174   31.1488  -29.3474 H         1 UNK         0.1335
@<TRIPOS>BOND
     1    1    2 ar   
     2    1    6 ar   
     3    1   27 1    
     4    2    3 ar   
     5    2   28 1    
     6    3    4 ar   
     7    3   24 1    
     8    4    5 ar   
     9    4    8 1    
    10    5    6 ar   
    11    5    7 1    
    12    6   29 1    
    13    8    9 2    
    14    8   10 am   
    15   10   11 1    
    16   10   30 1    
    17   11   12 ar   
    18   11   16 ar   
    19   12   13 ar   
    20   12   31 1    
    21   13   14 ar   
    22   13   32 1    
    23   14   15 ar   
    24   15   16 ar   
    25   15   17 1    
    26   16   33 1    
    27   17   18 am   
    28   17   34 1    
    29   18   19 2    
    30   18   20 1    
    31   20   21 1    
    32   20   22 1    
    33   20   25 1    
    34   21   22 1    
    35   21   35 1    
    36   21   36 1    
    37   22   23 1    
    38   22   26 1    
@<TRIPOS>SUBSTRUCTURE
@<TRIPOS>MOLECULE
ejm_47
39   41   0
SMALL
NO_CHARGES


@<TRIPOS>ATOM
      1 C1         -1.9612   21.5502  -27.3300 C.ar      1 UNK        -0.2077
      2 C2         -1.2942   22.4120  -28.1957 C.ar      1 UNK         0.0382
      3 C3         -1.9550   22.9520  -29.2938 C.ar      1 UNK        -0.1686
      4 C4         -3.2998   22.6223  -29.5426 C.ar      1 UNK         0.2212
      5 C5         -3.9689   21.7588  -28.6534 C.ar      1 UNK        -0.1775
      6 C6         -3.2917   21.2292  -27.5624 C.ar      1 UNK         0.0454
      7 Cl7        -5.6403   21.3533  -28.9190 Cl        1 UNK        -0.0594
      8 C8         -4.0401   23.1522  -30.7110 C.2       1 UNK         0.5053
      9 O9         -4.2265   22.4198  -31.6685 O.2       1 UNK        -0.5568
     10 N10        -4.5133   24.4119  -30.6476 N.am      1 UNK        -0.5832
     11 C11        -5.2869   25.1112  -31.5800 C.ar      1 UNK         0.7411
     12 C12        -5.9620   24.5479  -32.6807 C.ar      1 UNK        -0.6147
     13 C13        -6.7806   25.3609  -33.4589 C.ar      1 UNK         0.3743
     14 N14        -6.9234   26.6542  -33.1828 N.ar      1 UNK        -0.8009
     15 C15        -6.2984   27.2317  -32.1577 C.ar      1 UNK         1.0129
     16 C16        -5.5070   26.4571  -31.3066 C.ar      1 UNK        -0.8793
     17 N17        -6.5391   28.5828  -31.8838 N.am      1 UNK        -0.7120
     18 C18        -5.7134   29.4445  -31.2331 C.2       1 UNK         0.6330
     19 O19        -4.6156   29.1218  -30.8098 O.2       1 UNK        -0.5466
     20 Cl20       -1.1124   24.0506  -30.3318 Cl        1 UNK        -0.0589
     21 H21        -1.4436   21.1321  -26.4786 H         1 UNK         0.1758
     22 H22        -0.2591   22.6635  -28.0157 H         1 UNK         0.1161
     23 H23        -3.8111   20.5610  -26.8909 H         1 UNK         0.1158
     24 H24        -4.3168   24.9848  -29.8393 H         1 UNK         0.3826
     25 H25        -5.8400   23.4993  -32.9094 H         1 UNK         0.2604
     26 H26        -7.3119   24.9439  -34.3018 H         1 UNK         0.0760
     27 H27        -5.0645   26.9093  -30.4313 H         1 UNK         0.2842
     28 H28        -7.4045   29.0126  -32.1802 H         1 UNK         0.3595
     29 C29        -6.2070   30.8552  -31.0259 C.3       1 UNK        -0.0906
     30 C30        -5.6712   31.4766  -29.7311 C.3       1 UNK        -0.1215
     31 C31        -4.5282   32.0864  -30.5505 C.3       1 UNK        -0.0876
     32 C32        -5.3815   31.8833  -31.8076 C.3       1 UNK        -0.0643
     33 H33        -6.3587   32.2529  -29.3152 H         1 UNK         0.0851
     34 H34        -5.3503   30.7399  -28.9565 H         1 UNK         0.0144
     35 H35        -4.2966   33.1512  -30.3093 H         1 UNK         0.0391
     36 H36        -3.6135   31.4450  -30.5483 H         1 UNK         0.0668
     37 H37        -5.9737   32.7930  -32.0718 H         1 UNK         0.0717
     38 H38        -4.8299   31.4702  -32.6855 H         1 UNK         0.0314
     39 H39        -7.2836   30.9672  -31.1542 H         1 UNK         0.0794
@<TRIPOS>BOND
     1    1    2 ar   
     2    1    6 ar   
     3    1   21 1    
     4    2    3 ar   
     5    2   22 1    
     6    3    4 ar   
     7    3   20 1    
     8    4    5 ar   
     9    4    8 1    
    10    5    6 ar   
    11    5    7 1    
    12    6   23 1    
    13    8    9 2    
    14    8   10 am   
    15   10   11 1    
    16   10   24 1    
    17   11   12 ar   
    18   11   16 ar   
    19   12   13 ar   
    20   12   25 1    
    21   13   14 ar   
    22   13   26 1    
    23   14   15 ar   
    24   15   16 ar   
    25   15   17 1    
    26   16   27 1    
    27   17   18 am   
    28   17   28 1    
    29   18   19 2    
    30   18   29 1    
    31   29   30 1    
    32   29   32 1    
    33   29   39 1    
    34   30   31 1    
    35   30   33 1    
    36   30   34 1    
    37   31   32 1    
    38   31   35 1    
    39   31   36 1    
    40   32   37 1    
    41   32   38 1    
@<TRIPOS>SUBSTRUCTURE
@<TRIPOS>MOLECULE
ejm_48
42   44   0
SMALL
NO_CHARGES


@<TRIPOS>ATOM
      1 C1         -1.9612   21.5502  -27.3300 C.ar      1 UNK        -0.2151
      2 C2         -1.2942   22.4120  -28.1957 C.ar      1 UNK         0.0430
      3 C3         -1.9550   22.9520  -29.2938 C.ar      1 UNK        -0.1759
      4 C4         -3.2998   22.6223  -29.5426 C.ar      1 UNK         0.2424
      5 C5         -3.9689   21.7588  -28.6534 C.ar      1 UNK        -0.1937
      6 C6         -3.2917   21.2292  -27.5624 C.ar      1 UNK         0.0560
      7 Cl7        -5.6403   21.3533  -28.9190 Cl        1 UNK        -0.0558
      8 C8         -4.0401   23.1522  -30.7110 C.2       1 UNK         0.4938
      9 O9         -4.2265   22.4198  -31.6685 O.2       1 UNK        -0.5543
     10 N10        -4.5133   24.4119  -30.6476 N.am      1 UNK        -0.5667
     11 C11        -5.2869   25.1112  -31.5800 C.ar      1 UNK         0.7302
     12 C12        -5.9620   24.5479  -32.6807 C.ar      1 UNK        -0.6197
     13 C13        -6.7806   25.3609  -33.4589 C.ar      1 UNK         0.3743
     14 N14        -6.9234   26.6542  -33.1828 N.ar      1 UNK        -0.8068
     15 C15        -6.2984   27.2317  -32.1577 C.ar      1 UNK         1.0519
     16 C16        -5.5070   26.4571  -31.3066 C.ar      1 UNK        -0.8780
     17 N17        -6.5391   28.5828  -31.8838 N.am      1 UNK        -0.8165
     18 C18        -5.7134   29.4445  -31.2331 C.2       1 UNK         0.6705
     19 O19        -4.6156   29.1218  -30.8098 O.2       1 UNK        -0.5790
     20 Cl20       -1.1124   24.0506  -30.3318 Cl        1 UNK        -0.0607
     21 H21        -1.4436   21.1321  -26.4786 H         1 UNK         0.1780
     22 H22        -0.2591   22.6635  -28.0157 H         1 UNK         0.1161
     23 H23        -3.8111   20.5610  -26.8909 H         1 UNK         0.1136
     24 H24        -4.3168   24.9848  -29.8393 H         1 UNK         0.3719
     25 H25        -5.8400   23.4993  -32.9094 H         1 UNK         0.2617
     26 H26        -7.3119   24.9439  -34.3018 H         1 UNK         0.0790
     27 H27        -5.0645   26.9093  -30.4313 H         1 UNK         0.2977
     28 H28        -7.4045   29.0126  -32.1802 H         1 UNK         0.3734
     29 H29        -7.2836   30.9672  -31.1542 H         1 UNK         0.0597
     30 C30        -6.1757   30.8841  -31.0159 C.3       1 UNK        -0.0032
     31 C31        -5.7758   31.3307  -29.6033 C.3       1 UNK        -0.2316
     32 C32        -4.4024   31.9768  -29.7974 C.3       1 UNK         0.1251
     33 C33        -4.5846   32.7530  -31.1037 C.3       1 UNK        -0.2081
     34 C34        -5.4197   31.8126  -31.9835 C.3       1 UNK         0.0951
     35 H35        -5.7582   30.4902  -28.8683 H         1 UNK         0.0299
     36 H36        -6.4960   32.1001  -29.2320 H         1 UNK         0.0774
     37 H37        -4.1038   32.6292  -28.9417 H         1 UNK        -0.0099
     38 H38        -3.6249   31.1857  -29.9296 H         1 UNK         0.0083
     39 H39        -5.1602   33.6882  -30.8978 H         1 UNK         0.0737
     40 H40        -3.6133   33.0421  -31.5729 H         1 UNK         0.0414
     41 H41        -4.7457   31.2109  -32.6405 H         1 UNK         0.0132
     42 H42        -6.1117   32.3846  -32.6475 H         1 UNK        -0.0019
@<TRIPOS>BOND
     1    1    2 ar   
     2    1    6 ar   
     3    1   21 1    
     4    2    3 ar   
     5    2   22 1    
     6    3    4 ar   
     7    3   20 1    
     8    4    5 ar   
     9    4    8 1    
    10    5    6 ar   
    11    5    7 1    
    12    6   23 1    
    13    8    9 2    
    14    8   10 am   
    15   10   11 1    
    16   10   24 1    
    17   11   12 ar   
    18   11   16 ar   
    19   12   13 ar   
    20   12   25 1    
    21   13   14 ar   
    22   13   26 1    
    23   14   15 ar   
    24   15   16 ar   
    25   15   17 1    
    26   16   27 1    
    27   17   18 am   
    28   17   28 1    
    29   18   19 2    
    30   18   30 1    
    31   29   30 1    
    32   30   31 1    
    33   30   34 1    
    34   31   32 1    
    35   31   35 1    
    36   31   36 1    
    37   32   33 1    
    38   32   37 1    
    39   32   38 1    
    40   33   34 1    
    41   33   39 1    
    42   33   40 1    
    43   34   41 1    
    44   34   42 1    
@<TRIPOS>SUBSTRUCTURE
@<TRIPOS>MOLECULE
ejm_49
39   41   0
SMALL
NO_CHARGES


@<TRIPOS>ATOM
      1 C1         -1.9612   21.5502  -27.3300 C.ar      1 UNK        -0.2094
      2 C2         -1.2942   22.4120  -28.1957 C.ar      1 UNK         0.0367
      3 C3         -1.9550   22.9520  -29.2938 C.ar      1 UNK        -0.1671
      4 C4         -3.2998   22.6223  -29.5426 C.ar      1 UNK         0.2258
      5 C5         -3.9689   21.7588  -28.6534 C.ar      1 UNK        -0.1809
      6 C6         -3.2917   21.2292  -27.5624 C.ar      1 UNK         0.0474
      7 Cl7        -5.6403   21.3533  -28.9190 Cl        1 UNK        -0.0579
      8 C8         -4.0401   23.1522  -30.7110 C.2       1 UNK         0.5142
      9 O9         -4.2265   22.4198  -31.6685 O.2       1 UNK        -0.5602
     10 N10        -4.5133   24.4119  -30.6476 N.am      1 UNK        -0.5913
     11 C11        -5.2869   25.1112  -31.5800 C.ar      1 UNK         0.7452
     12 C12        -5.9620   24.5479  -32.6807 C.ar      1 UNK        -0.6105
     13 C13        -6.7806   25.3609  -33.4589 C.ar      1 UNK         0.3721
     14 N14        -6.9234   26.6542  -33.1828 N.ar      1 UNK        -0.7940
     15 C15        -6.2984   27.2317  -32.1577 C.ar      1 UNK         1.0091
     16 C16        -5.5070   26.4571  -31.3066 C.ar      1 UNK        -0.8865
     17 N17        -6.5391   28.5828  -31.8838 N.am      1 UNK        -0.7160
     18 C18        -5.7134   29.4445  -31.2331 C.2       1 UNK         0.6445
     19 O19        -4.6156   29.1218  -30.8098 O.2       1 UNK        -0.5895
     20 Cl20       -1.1124   24.0506  -30.3318 Cl        1 UNK        -0.0631
     21 H21        -1.4436   21.1321  -26.4786 H         1 UNK         0.1760
     22 H22        -0.2591   22.6635  -28.0157 H         1 UNK         0.1173
     23 H23        -3.8111   20.5610  -26.8909 H         1 UNK         0.1153
     24 H24        -4.3168   24.9848  -29.8393 H         1 UNK         0.3804
     25 H25        -5.8400   23.4993  -32.9094 H         1 UNK         0.2602
     26 H26        -7.3119   24.9439  -34.3018 H         1 UNK         0.0772
     27 H27        -5.0645   26.9093  -30.4313 H         1 UNK         0.3127
     28 H28        -7.4045   29.0126  -32.1802 H         1 UNK         0.3631
     29 C29        -7.0259   33.5314  -30.6164 C.ar      1 UNK        -0.0986
     30 C30        -7.2461   32.9020  -31.8526 C.ar      1 UNK        -0.1210
     31 C31        -6.8210   31.5783  -32.0524 C.ar      1 UNK        -0.1099
     32 C32        -6.1757   30.8841  -31.0159 C.ar      1 UNK        -0.0710
     33 C33        -5.9555   31.5134  -29.7797 C.ar      1 UNK        -0.0961
     34 C34        -6.3806   32.8371  -29.5799 C.ar      1 UNK        -0.1131
     35 H35        -7.3599   34.5712  -30.4595 H         1 UNK         0.1299
     36 H36        -7.7531   33.4475  -32.6669 H         1 UNK         0.1339
     37 H37        -6.9940   31.0839  -33.0235 H         1 UNK         0.1318
     38 H38        -5.4486   30.9679  -28.9655 H         1 UNK         0.1129
     39 H39        -6.2076   33.3315  -28.6088 H         1 UNK         0.1301
@<TRIPOS>BOND
     1    1    2 ar   
     2    1    6 ar   
     3    1   21 1    
     4    2    3 ar   
     5    2   22 1    
     6    3    4 ar   
     7    3   20 1    
     8    4    5 ar   
     9    4    8 1    
    10    5    6 ar   
    11    5    7 1    
    12    6   23 1    
    13    8    9 2    
    14    8   10 am   
    15   10   11 1    
    16   10   24 1    
    17   11   12 ar   
    18   11   16 ar   
    19   12   13 ar   
    20   12   25 1    
    21   13   14 ar   
    22   13   26 1    
    23   14   15 ar   
    24   15   16 ar   
    25   15   17 1    
    26   16   27 1    
    27   17   18 am   
    28   17   28 1    
    29   18   19 2    
    30   18   32 1    
    31   29   30 ar   
    32   29   34 ar   
    33   29   35 1    
    34   30   31 ar   
    35   30   36 1    
    36   31   32 ar   
    37   31   37 1    
    38   32   33 ar   
    39   33   34 ar   
    40   33   38 1    
    41   34   39 1    
@<TRIPOS>SUBSTRUCTURE
@<TRIPOS>MOLECULE
ejm_50
33   34   0
SMALL
NO_CHARGES


@<TRIPOS>ATOM
      1 C1         -1.9612   21.5502  -27.3300 C.ar      1 UNK        -0.2138
      2 C2         -1.2942   22.4120  -28.1957 C.ar      1 UNK         0.0382
      3 C3         -1.9550   22.9520  -29.2938 C.ar      1 UNK        -0.1771
      4 C4         -3.2998   22.6223  -29.5426 C.ar      1 UNK         0.2576
      5 C5         -3.9689   21.7588  -28.6534 C.ar      1 UNK        -0.1987
      6 C6         -3.2917   21.2292  -27.5624 C.ar      1 UNK         0.0530
      7 Cl7        -5.6403   21.3533  -28.9190 Cl        1 UNK        -0.0567
      8 C8         -4.0401   23.1522  -30.7110 C.2       1 UNK         0.5144
      9 O9         -4.2265   22.4198  -31.6685 O.2       1 UNK        -0.5626
     10 N10        -4.5133   24.4119  -30.6476 N.am      1 UNK        -0.6176
     11 C11        -5.2869   25.1112  -31.5800 C.ar      1 UNK         0.8048
     12 C12        -5.9620   24.5479  -32.6807 C.ar      1 UNK        -0.6444
     13 C13        -6.7806   25.3609  -33.4589 C.ar      1 UNK         0.3746
     14 N14        -6.9234   26.6542  -33.1828 N.ar      1 UNK        -0.7992
     15 C15        -6.2984   27.2317  -32.1577 C.ar      1 UNK         1.0890
     16 C16        -5.5070   26.4571  -31.3066 C.ar      1 UNK        -0.9566
     17 N17        -6.5391   28.5828  -31.8838 N.am      1 UNK        -0.8957
     18 C18        -5.7134   29.4445  -31.2331 C.2       1 UNK         0.8243
     19 O19        -4.6156   29.1218  -30.8098 O.2       1 UNK        -0.6077
     20 C20        -6.2319   30.8471  -31.0310 C.3       1 UNK        -0.0201
     21 Cl21       -1.1124   24.0506  -30.3318 Cl        1 UNK        -0.0636
     22 H22        -6.7611   31.2474  -31.8901 H         1 UNK         0.1052
     23 H23        -1.4436   21.1321  -26.4786 H         1 UNK         0.1779
     24 H24        -0.2591   22.6635  -28.0157 H         1 UNK         0.1185
     25 H25        -3.8111   20.5610  -26.8909 H         1 UNK         0.1153
     26 H26        -4.3168   24.9848  -29.8393 H         1 UNK         0.3803
     27 H27        -5.8400   23.4993  -32.9094 H         1 UNK         0.2694
     28 H28        -7.3119   24.9439  -34.3018 H         1 UNK         0.0783
     29 H29        -5.0645   26.9093  -30.4313 H         1 UNK         0.3295
     30 H30        -7.4045   29.0126  -32.1802 H         1 UNK         0.4057
     31 H31        -6.8876   30.8681  -30.1605 H         1 UNK         0.1035
     32 H32        -5.4617   32.7685  -30.5367 H         1 UNK         0.4839
     33 O33        -5.0874   31.8048  -30.6730 O.3       1 UNK        -0.7097
@<TRIPOS>BOND
     1    1    2 ar   
     2    1    6 ar   
     3    1   23 1    
     4    2    3 ar   
     5    2   24 1    
     6    3    4 ar   
     7    3   21 1    
     8    4    5 ar   
     9    4    8 1    
    10    5    6 ar   
    11    5    7 1    
    12    6   25 1    
    13    8    9 2    
    14    8   10 am   
    15   10   11 1    
    16   10   26 1    
    17   11   12 ar   
    18   11   16 ar   
    19   12   13 ar   
    20   12   27 1    
    21   13   14 ar   
    22   13   28 1    
    23   14   15 ar   
    24   15   16 ar   
    25   15   17 1    
    26   16   29 1    
    27   17   18 am   
    28   17   30 1    
    29   18   19 2    
    30   18   20 1    
    31   20   22 1    
    32   20   31 1    
    33   20   33 1    
    34   32   33 1    
@<TRIPOS>SUBSTRUCTURE
@<TRIPOS>MOLECULE
ejm_54
37   38   0
SMALL
NO_CHARGES


@<TRIPOS>ATOM
      1 C1         -1.9612   21.5502  -27.3300 C.ar      1 UNK        -0.2127
      2 C2         -1.2942   22.4120  -28.1957 C.ar      1 UNK         0.0401
      3 C3         -1.9550   22.9520  -29.2938 C.ar      1 UNK        -0.1757
      4 C4         -3.2998   22.6223  -29.5426 C.ar      1 UNK         0.2427
      5 C5         -3.9689   21.7588  -28.6534 C.ar      1 UNK        -0.1930
      6 C6         -3.2917   21.2292  -27.5624 C.ar      1 UNK         0.0523
      7 Cl7        -5.6403   21.3533  -28.9190 Cl        1 UNK        -0.0579
      8 C8         -4.0401   23.1522  -30.7110 C.2       1 UNK         0.5237
      9 O9         -4.2265   22.4198  -31.6685 O.2       1 UNK        -0.5650
     10 N10        -4.5133   24.4119  -30.6476 N.am      1 UNK        -0.6472
     11 C11        -5.2869   25.1112  -31.5800 C.ar      1 UNK         0.8328
     12 C12        -5.9620   24.5479  -32.6807 C.ar      1 UNK        -0.6790
     13 C13        -6.7806   25.3609  -33.4589 C.ar      1 UNK         0.3979
     14 N14        -6.9234   26.6542  -33.1828 N.ar      1 UNK        -0.8214
     15 C15        -6.2984   27.2317  -32.1577 C.ar      1 UNK         1.0579
     16 C16        -5.5070   26.4571  -31.3066 C.ar      1 UNK        -0.9462
     17 N17        -6.5391   28.5828  -31.8838 N.am      1 UNK        -0.8492
     18 C18        -5.7134   29.4445  -31.2331 C.2       1 UNK         0.9094
     19 O19        -4.6156   29.1218  -30.8098 O.2       1 UNK        -0.6384
     20 Cl20       -1.1124   24.0506  -30.3318 Cl        1 UNK        -0.0627
     21 H21        -1.4436   21.1321  -26.4786 H         1 UNK         0.1771
     22 H22        -0.2591   22.6635  -28.0157 H         1 UNK         0.1170
     23 H23        -3.8111   20.5610  -26.8909 H         1 UNK         0.1146
     24 H24        -4.3168   24.9848  -29.8393 H         1 UNK         0.3970
     25 H25        -5.8400   23.4993  -32.9094 H         1 UNK         0.2708
     26 H26        -7.3119   24.9439  -34.3018 H         1 UNK         0.0698
     27 H27        -5.0645   26.9093  -30.4313 H         1 UNK         0.2933
     28 H28        -7.4045   29.0126  -32.1802 H         1 UNK         0.3953
     29 C29        -5.1871   31.8542  -30.6778 C.3       1 UNK         0.3300
     30 H30        -5.5878   32.8578  -30.8199 H         1 UNK         0.0128
     31 H31        -4.9066   31.7200  -29.6331 H         1 UNK        -0.0033
     32 C32        -3.9781   31.6716  -31.5468 C.3       1 UNK        -0.2644
     33 N33        -6.1554   30.8245  -31.0242 N.am      1 UNK        -0.8016
     34 H34        -7.1324   31.0619  -31.1205 H         1 UNK         0.4655
     35 H35        -3.5766   30.6681  -31.4054 H         1 UNK         0.0810
     36 H36        -4.2573   31.8068  -32.5917 H         1 UNK         0.0757
     37 H37        -3.2207   32.4070  -31.2756 H         1 UNK         0.0610
@<TRIPOS>BOND
     1    1    2 ar   
     2    1    6 ar   
     3    1   21 1    
     4    2    3 ar   
     5    2   22 1    
     6    3    4 ar   
     7    3   20 1    
     8    4    5 ar   
     9    4    8 1    
    10    5    6 ar   
    11    5    7 1    
    12    6   23 1    
    13    8    9 2    
    14    8   10 am   
    15   10   11 1    
    16   10   24 1    
    17   11   12 ar   
    18   11   16 ar   
    19   12   13 ar   
    20   12   25 1    
    21   13   14 ar   
    22   13   26 1    
    23   14   15 ar   
    24   15   16 ar   
    25   15   17 1    
    26   16   27 1    
    27   17   18 am   
    28   17   28 1    
    29   18   19 2    
    30   18   33 am   
    31   29   30 1    
    32   29   31 1    
    33   29   32 1    
    34   29   33 1    
    35   32   35 1    
    36   32   36 1    
    37   32   37 1    
    38   33   34 1    
@<TRIPOS>SUBSTRUCTURE
@<TRIPOS>MOLECULE
ejm_55
33   34   0
SMALL
NO_CHARGES


@<TRIPOS>ATOM
      1 C1         -1.9612   21.5502  -27.3300 C.ar      1 UNK        -0.2106
      2 C2         -1.2942   22.4120  -28.1957 C.ar      1 UNK         0.0393
      3 C3         -1.9550   22.9520  -29.2938 C.ar      1 UNK        -0.1745
      4 C4         -3.2998   22.6223  -29.5426 C.ar      1 UNK         0.2383
      5 C5         -3.9689   21.7588  -28.6534 C.ar      1 UNK        -0.1849
      6 C6         -3.2917   21.2292  -27.5624 C.ar      1 UNK         0.0468
      7 Cl7        -5.6403   21.3533  -28.9190 Cl        1 UNK        -0.0571
      8 C8         -4.0401   23.1522  -30.7110 C.2       1 UNK         0.5112
      9 O9         -4.2265   22.4198  -31.6685 O.2       1 UNK        -0.5594
     10 N10        -4.5133   24.4119  -30.6476 N.am      1 UNK        -0.6212
     11 C11        -5.2869   25.1112  -31.5800 C.ar      1 UNK         0.8185
     12 C12        -5.9620   24.5479  -32.6807 C.ar      1 UNK        -0.6448
     13 C13        -6.7806   25.3609  -33.4589 C.ar      1 UNK         0.3706
     14 N14        -6.9234   26.6542  -33.1828 N.ar      1 UNK        -0.8000
     15 C15        -6.2984   27.2317  -32.1577 C.ar      1 UNK         1.1074
     16 C16        -5.5070   26.4571  -31.3066 C.ar      1 UNK        -0.9937
     17 N17        -6.5391   28.5828  -31.8838 N.am      1 UNK        -0.9088
     18 C18        -5.7134   29.4445  -31.2331 C.2       1 UNK         0.9768
     19 O19        -4.6156   29.1218  -30.8098 O.2       1 UNK        -0.6357
     20 Cl20       -1.1124   24.0506  -30.3318 Cl        1 UNK        -0.0610
     21 H21        -1.4436   21.1321  -26.4786 H         1 UNK         0.1766
     22 H22        -0.2591   22.6635  -28.0157 H         1 UNK         0.1173
     23 H23        -3.8111   20.5610  -26.8909 H         1 UNK         0.1158
     24 H24        -4.3168   24.9848  -29.8393 H         1 UNK         0.3895
     25 H25        -5.8400   23.4993  -32.9094 H         1 UNK         0.2686
     26 H26        -7.3119   24.9439  -34.3018 H         1 UNK         0.0802
     27 H27        -5.0645   26.9093  -30.4313 H         1 UNK         0.3297
     28 H28        -7.4045   29.0126  -32.1802 H         1 UNK         0.4233
     29 C29        -5.1871   31.8542  -30.6778 C.3       1 UNK        -0.1143
     30 H30        -5.5878   32.8578  -30.8199 H         1 UNK         0.1433
     31 H31        -4.9066   31.7200  -29.6331 H         1 UNK         0.1077
     32 O32        -6.2503   30.8477  -31.0335 O.3       1 UNK        -0.4000
     33 H33        -4.3149   31.7110  -31.3157 H         1 UNK         0.1050
@<TRIPOS>BOND
     1    1    2 ar   
     2    1    6 ar   
     3    1   21 1    
     4    2    3 ar   
     5    2   22 1    
     6    3    4 ar   
     7    3   20 1    
     8    4    5 ar   
     9    4    8 1    
    10    5    6 ar   
    11    5    7 1    
    12    6   23 1    
    13    8    9 2    
    14    8   10 am   
    15   10   11 1    
    16   10   24 1    
    17   11   12 ar   
    18   11   16 ar   
    19   12   13 ar   
    20   12   25 1    
    21   13   14 ar   
    22   13   26 1    
    23   14   15 ar   
    24   15   16 ar   
    25   15   17 1    
    26   16   27 1    
    27   17   18 am   
    28   17   28 1    
    29   18   19 2    
    30   18   32 1    
    31   29   30 1    
    32   29   31 1    
    33   29   32 1    
    34   29   33 1    
@<TRIPOS>SUBSTRUCTURE
@<TRIPOS>MOLECULE
jmc_23
36   38   0
SMALL
NO_CHARGES


@<TRIPOS>ATOM
      1 C1         -1.9612   21.5502  -27.3300 C.ar      1 UNK        -0.2057
      2 C2         -1.2942   22.4120  -28.1957 C.ar      1 UNK         0.0303
      3 C3         -1.9550   22.9520  -29.2938 C.ar      1 UNK        -0.1672
      4 C4         -3.2998   22.6223  -29.5426 C.ar      1 UNK         0.2356
      5 C5         -3.9689   21.7588  -28.6534 C.ar      1 UNK        -0.1832
      6 C6         -3.2917   21.2292  -27.5624 C.ar      1 UNK         0.0410
      7 Cl7        -5.6403   21.3533  -28.9190 Cl        1 UNK        -0.0573
      8 C8         -4.0401   23.1522  -30.7110 C.2       1 UNK         0.5171
      9 O9         -4.2265   22.4198  -31.6685 O.2       1 UNK        -0.5622
     10 N10        -4.5133   24.4119  -30.6476 N.am      1 UNK        -0.6180
     11 C11        -5.2869   25.1112  -31.5800 C.ar      1 UNK         0.7828
     12 C12        -5.9620   24.5479  -32.6807 C.ar      1 UNK        -0.6261
     13 C13        -6.7806   25.3609  -33.4589 C.ar      1 UNK         0.3689
     14 N14        -6.9234   26.6542  -33.1828 N.ar      1 UNK        -0.7919
     15 C15        -6.2984   27.2317  -32.1577 C.ar      1 UNK         1.0412
     16 C16        -5.5070   26.4571  -31.3066 C.ar      1 UNK        -0.9219
     17 N17        -6.5391   28.5828  -31.8838 N.am      1 UNK        -0.7946
     18 C18        -5.7134   29.4445  -31.2331 C.2       1 UNK         0.7774
     19 O19        -4.6156   29.1218  -30.8098 O.2       1 UNK        -0.5792
     20 C20        -6.2319   30.8471  -31.0310 C.3       1 UNK        -0.3350
     21 C21        -5.5787   31.7462  -29.9763 C.3       1 UNK        -0.3531
     22 C22        -5.3636   32.0236  -31.4653 C.3       1 UNK         0.1405
     23 F23        -4.1127   31.7229  -32.0057 F         1 UNK        -0.2090
     24 Cl24       -1.1124   24.0506  -30.3318 Cl        1 UNK        -0.0612
     25 H25        -7.3054   30.9413  -31.1624 H         1 UNK         0.2153
     26 H26        -5.8627   32.8962  -31.8829 H         1 UNK         0.1351
     27 H27        -1.4436   21.1321  -26.4786 H         1 UNK         0.1760
     28 H28        -0.2591   22.6635  -28.0157 H         1 UNK         0.1194
     29 H29        -3.8111   20.5610  -26.8909 H         1 UNK         0.1175
     30 H30        -4.3168   24.9848  -29.8393 H         1 UNK         0.3881
     31 H31        -5.8400   23.4993  -32.9094 H         1 UNK         0.2647
     32 H32        -7.3119   24.9439  -34.3018 H         1 UNK         0.0778
     33 H33        -5.0645   26.9093  -30.4313 H         1 UNK         0.3060
     34 H34        -7.4045   29.0126  -32.1802 H         1 UNK         0.3773
     35 H35        -6.3523   32.2035  -29.3584 H         1 UNK         0.1880
     36 H36        -4.9174   31.1488  -29.3474 H         1 UNK         0.1653
@<TRIPOS>BOND
     1    1    2 ar   
     2    1    6 ar   
     3    1   27 1    
     4    2    3 ar   
     5    2   28 1    
     6    3    4 ar   
     7    3   24 1    
     8    4    5 ar   
     9    4    8 1    
    10    5    6 ar   
    11    5    7 1    
    12    6   29 1    
    13    8    9 2    
    14    8   10 am   
    15   10   11 1    
    16   10   30 1    
    17   11   12 ar   
    18   11   16 ar   
    19   12   13 ar   
    20   12   31 1    
    21   13   14 ar   
    22   13   32 1    
    23   14   15 ar   
    24   15   16 ar   
    25   15   17 1    
    26   16   33 1    
    27   17   18 am   
    28   17   34 1    
    29   18   19 2    
    30   18   20 1    
    31   20   21 1    
    32   20   22 1    
    33   20   25 1    
    34   21   22 1    
    35   21   35 1    
    36   21   36 1    
    37   22   23 1    
    38   22   26 1    
@<TRIPOS>SUBSTRUCTURE
@<TRIPOS>MOLECULE
jmc_27
36   38   0
SMALL
NO_CHARGES


@<TRIPOS>ATOM
      1 C1         -1.9612   21.5502  -27.3300 C.ar      1 UNK        -0.2100
      2 C2         -1.2942   22.4120  -28.1957 C.ar      1 UNK         0.0341
      3 C3         -1.9550   22.9520  -29.2938 C.ar      1 UNK        -0.1738
      4 C4         -3.2998   22.6223  -29.5426 C.ar      1 UNK         0.2451
      5 C5         -3.9689   21.7588  -28.6534 C.ar      1 UNK        -0.1893
      6 C6         -3.2917   21.2292  -27.5624 C.ar      1 UNK         0.0452
      7 Cl7        -5.6403   21.3533  -28.9190 Cl        1 UNK        -0.0573
      8 C8         -4.0401   23.1522  -30.7110 C.2       1 UNK         0.5229
      9 O9         -4.2265   22.4198  -31.6685 O.2       1 UNK        -0.5628
     10 N10        -4.5133   24.4119  -30.6476 N.am      1 UNK        -0.6264
     11 C11        -5.2869   25.1112  -31.5800 C.ar      1 UNK         0.7818
     12 C12        -5.9620   24.5479  -32.6807 C.ar      1 UNK        -0.6295
     13 C13        -6.7806   25.3609  -33.4589 C.ar      1 UNK         0.3777
     14 N14        -6.9234   26.6542  -33.1828 N.ar      1 UNK        -0.7917
     15 C15        -6.2984   27.2317  -32.1577 C.ar      1 UNK         1.0135
     16 C16        -5.5070   26.4571  -31.3066 C.ar      1 UNK        -0.8970
     17 N17        -6.5391   28.5828  -31.8838 N.am      1 UNK        -0.7687
     18 C18        -5.7134   29.4445  -31.2331 C.2       1 UNK         0.7385
     19 O19        -4.6156   29.1218  -30.8098 O.2       1 UNK        -0.5648
     20 C20        -6.2319   30.8471  -31.0310 C.3       1 UNK        -0.2739
     21 C21        -5.5787   31.7462  -29.9763 C.3       1 UNK        -0.2953
     22 C22        -5.3636   32.0236  -31.4653 C.3       1 UNK        -0.0861
     23 Cl23       -3.7545   31.6367  -32.1604 Cl        1 UNK        -0.1590
     24 Cl24       -1.1124   24.0506  -30.3318 Cl        1 UNK        -0.0598
     25 H25        -7.3054   30.9413  -31.1624 H         1 UNK         0.2134
     26 H26        -5.8627   32.8962  -31.8829 H         1 UNK         0.1970
     27 H27        -1.4436   21.1321  -26.4786 H         1 UNK         0.1768
     28 H28        -0.2591   22.6635  -28.0157 H         1 UNK         0.1191
     29 H29        -3.8111   20.5610  -26.8909 H         1 UNK         0.1169
     30 H30        -4.3168   24.9848  -29.8393 H         1 UNK         0.3883
     31 H31        -5.8400   23.4993  -32.9094 H         1 UNK         0.2663
     32 H32        -7.3119   24.9439  -34.3018 H         1 UNK         0.0764
     33 H33        -5.0645   26.9093  -30.4313 H         1 UNK         0.3021
     34 H34        -7.4045   29.0126  -32.1802 H         1 UNK         0.3824
     35 H35        -6.3523   32.2035  -29.3584 H         1 UNK         0.1892
     36 H36        -4.9174   31.1488  -29.3474 H         1 UNK         0.1587
@<TRIPOS>BOND
     1    1    2 ar   
     2    1    6 ar   
     3    1   27 1    
     4    2    3 ar   
     5    2   28 1    
     6    3    4 ar   
     7    3   24 1    
     8    4    5 ar   
     9    4    8 1    
    10    5    6 ar   
    11    5    7 1    
    12    6   29 1    
    13    8    9 2    
    14    8   10 am   
    15   10   11 1    
    16   10   30 1    
    17   11   12 ar   
    18   11   16 ar   
    19   12   13 ar   
    20   12   31 1    
    21   13   14 ar   
    22   13   32 1    
    23   14   15 ar   
    24   15   16 ar   
    25   15   17 1    
    26   16   33 1    
    27   17   18 am   
    28   17   34 1    
    29   18   19 2    
    30   18   20 1    
    31   20   21 1    
    32   20   22 1    
    33   20   25 1    
    34   21   22 1    
    35   21   35 1    
    36   21   36 1    
    37   22   23 1    
    38   22   26 1    
@<TRIPOS>SUBSTRUCTURE
@<TRIPOS>MOLECULE
jmc_28
39   41   0
SMALL
NO_CHARGES


@<TRIPOS>ATOM
      1 C1         -1.9612   21.5502  -27.3300 C.ar      1 UNK        -0.2118
      2 C2         -1.2942   22.4120  -28.1957 C.ar      1 UNK         0.0398
      3 C3         -1.9550   22.9520  -29.2938 C.ar      1 UNK        -0.1740
      4 C4         -3.2998   22.6223  -29.5426 C.ar      1 UNK         0.2367
      5 C5         -3.9689   21.7588  -28.6534 C.ar      1 UNK        -0.1861
      6 C6         -3.2917   21.2292  -27.5624 C.ar      1 UNK         0.0484
      7 Cl7        -5.6403   21.3533  -28.9190 Cl        1 UNK        -0.0572
      8 C8         -4.0401   23.1522  -30.7110 C.2       1 UNK         0.5118
      9 O9         -4.2265   22.4198  -31.6685 O.2       1 UNK        -0.5608
     10 N10        -4.5133   24.4119  -30.6476 N.am      1 UNK        -0.6114
     11 C11        -5.2869   25.1112  -31.5800 C.ar      1 UNK         0.7853
     12 C12        -5.9620   24.5479  -32.6807 C.ar      1 UNK        -0.6293
     13 C13        -6.7806   25.3609  -33.4589 C.ar      1 UNK         0.3663
     14 N14        -6.9234   26.6542  -33.1828 N.ar      1 UNK        -0.7937
     15 C15        -6.2984   27.2317  -32.1577 C.ar      1 UNK         1.0579
     16 C16        -5.5070   26.4571  -31.3066 C.ar      1 UNK        -0.9369
     17 N17        -6.5391   28.5828  -31.8838 N.am      1 UNK        -0.8192
     18 C18        -5.7134   29.4445  -31.2331 C.2       1 UNK         0.8312
     19 O19        -4.6156   29.1218  -30.8098 O.2       1 UNK        -0.6085
     20 C20        -6.2319   30.8471  -31.0310 C.3       1 UNK        -0.3793
     21 C21        -5.5787   31.7462  -29.9763 C.3       1 UNK        -0.3893
     22 C22        -5.3636   32.0236  -31.4653 C.3       1 UNK         0.1334
     23 C23        -4.0190   31.7003  -32.0462 C.3       1 UNK        -0.4025
     24 Cl24       -1.1124   24.0506  -30.3318 Cl        1 UNK        -0.0611
     25 H25        -7.3054   30.9413  -31.1624 H         1 UNK         0.2043
     26 H26        -5.8627   32.8962  -31.8829 H         1 UNK         0.0914
     27 H27        -1.4436   21.1321  -26.4786 H         1 UNK         0.1768
     28 H28        -0.2591   22.6635  -28.0157 H         1 UNK         0.1170
     29 H29        -3.8111   20.5610  -26.8909 H         1 UNK         0.1154
     30 H30        -4.3168   24.9848  -29.8393 H         1 UNK         0.3884
     31 H31        -5.8400   23.4993  -32.9094 H         1 UNK         0.2646
     32 H32        -7.3119   24.9439  -34.3018 H         1 UNK         0.0785
     33 H33        -5.0645   26.9093  -30.4313 H         1 UNK         0.3091
     34 H34        -7.4045   29.0126  -32.1802 H         1 UNK         0.3763
     35 H35        -6.3523   32.2035  -29.3584 H         1 UNK         0.1747
     36 H36        -4.9174   31.1488  -29.3474 H         1 UNK         0.1619
     37 H37        -3.5059   32.6244  -32.3125 H         1 UNK         0.1125
     38 H38        -3.4266   31.1553  -31.3112 H         1 UNK         0.1326
     39 H39        -4.1459   31.0859  -32.9375 H         1 UNK         0.1068
@<TRIPOS>BOND
     1    1    2 ar   
     2    1    6 ar   
     3    1   27 1    
     4    2    3 ar   
     5    2   28 1    
     6    3    4 ar   
     7    3   24 1    
     8    4    5 ar   
     9    4    8 1    
    10    5    6 ar   
    11    5    7 1    
    12    6   29 1    
    13    8    9 2    
    14    8   10 am   
    15   10   11 1    
    16   10   30 1    
    17   11   12 ar   
    18   11   16 ar   
    19   12   13 ar   
    20   12   31 1    
    21   13   14 ar   
    22   13   32 1    
    23   14   15 ar   
    24   15   16 ar   
    25   15   17 1    
    26   16   33 1    
    27   17   18 am   
    28   17   34 1    
    29   18   19 2    
    30   18   20 1    
    31   20   21 1    
    32   20   22 1    
    33   20   25 1    
    34   21   22 1    
    35   21   35 1    
    36   21   36 1    
    37   22   23 1    
    38   22   26 1    
    39   23   37 1    
    40   23   38 1    
    41   23   39 1    
@<TRIPOS>SUBSTRUCTURE
@<TRIPOS>MOLECULE
jmc_30
37   39   0
SMALL
NO_CHARGES


@<TRIPOS>ATOM
      1 C1         -1.9612   21.5502  -27.3300 C.ar      1 UNK        -0.2141
      2 C2         -1.2942   22.4120  -28.1957 C.ar      1 UNK         0.0402
      3 C3         -1.9550   22.9520  -29.2938 C.ar      1 UNK        -0.1795
      4 C4         -3.2998   22.6223  -29.5426 C.ar      1 UNK         0.2512
      5 C5         -3.9689   21.7588  -28.6534 C.ar      1 UNK        -0.1949
      6 C6         -3.2917   21.2292  -27.5624 C.ar      1 UNK         0.0511
      7 Cl7        -5.6403   21.3533  -28.9190 Cl        1 UNK        -0.0578
      8 C8         -4.0401   23.1522  -30.7110 C.2       1 UNK         0.5268
      9 O9         -4.2265   22.4198  -31.6685 O.2       1 UNK        -0.5649
     10 N10        -4.5133   24.4119  -30.6476 N.am      1 UNK        -0.6357
     11 C11        -5.2869   25.1112  -31.5800 C.ar      1 UNK         0.7922
     12 C12        -5.9620   24.5479  -32.6807 C.ar      1 UNK        -0.6332
     13 C13        -6.7806   25.3609  -33.4589 C.ar      1 UNK         0.3684
     14 N14        -6.9234   26.6542  -33.1828 N.ar      1 UNK        -0.7819
     15 C15        -6.2984   27.2317  -32.1577 C.ar      1 UNK         1.0194
     16 C16        -5.5070   26.4571  -31.3066 C.ar      1 UNK        -0.8962
     17 N17        -6.5391   28.5828  -31.8838 N.am      1 UNK        -0.7775
     18 C18        -5.7134   29.4445  -31.2331 C.2       1 UNK         0.7667
     19 O19        -4.6156   29.1218  -30.8098 O.2       1 UNK        -0.5563
     20 C20        -6.2319   30.8471  -31.0310 C.3       1 UNK        -0.3064
     21 C21        -5.5787   31.7462  -29.9763 C.3       1 UNK        -0.2833
     22 C22        -5.3636   32.0236  -31.4653 C.3       1 UNK        -0.1837
     23 C23        -4.0190   31.7003  -32.0462 C.1       1 UNK         0.4369
     24 Cl24       -1.1124   24.0506  -30.3318 Cl        1 UNK        -0.0607
     25 H25        -7.3054   30.9413  -31.1624 H         1 UNK         0.2377
     26 H26        -5.8627   32.8962  -31.8829 H         1 UNK         0.2021
     27 H27        -1.4436   21.1321  -26.4786 H         1 UNK         0.1777
     28 H28        -0.2591   22.6635  -28.0157 H         1 UNK         0.1176
     29 H29        -3.8111   20.5610  -26.8909 H         1 UNK         0.1161
     30 H30        -4.3168   24.9848  -29.8393 H         1 UNK         0.3923
     31 H31        -5.8400   23.4993  -32.9094 H         1 UNK         0.2691
     32 H32        -7.3119   24.9439  -34.3018 H         1 UNK         0.0790
     33 H33        -5.0645   26.9093  -30.4313 H         1 UNK         0.2945
     34 H34        -7.4045   29.0126  -32.1802 H         1 UNK         0.3770
     35 H35        -6.3523   32.2035  -29.3584 H         1 UNK         0.1971
     36 H36        -4.9174   31.1488  -29.3474 H         1 UNK         0.1590
     37 N37        -2.7003   31.3832  -32.6159 N.1       1 UNK        -0.5461
@<TRIPOS>BOND
     1    1    2 ar   
     2    1    6 ar   
     3    1   27 1    
     4    2    3 ar   
     5    2   28 1    
     6    3    4 ar   
     7    3   24 1    
     8    4    5 ar   
     9    4    8 1    
    10    5    6 ar   
    11    5    7 1    
    12    6   29 1    
    13    8    9 2    
    14    8   10 am   
    15   10   11 1    
    16   10   30 1    
    17   11   12 ar   
    18   11   16 ar   
    19   12   13 ar   
    20   12   31 1    
    21   13   14 ar   
    22   13   32 1    
    23   14   15 ar   
    24   15   16 ar   
    25   15   17 1    
    26   16   33 1    
    27   17   18 am   
    28   17   34 1    
    29   18   19 2    
    30   18   20 1    
    31   20   21 1    
    32   20   22 1    
    33   20   25 1    
    34   21   22 1    
    35   21   35 1    
    36   21   36 1    
    37   22   23 1    
    38   22   26 1    
    39   23   37 3    
@<TRIPOS>SUBSTRUCTURE
