@<TRIPOS>MOLECULE
26
43   46    1
SMALL
USER_CHARGES


@<TRIPOS>ATOM
      1 O1          3.8290  -49.9082    7.3567 O.co2     1 UNK         0.0000 
      2 C2          3.1153  -49.0416    6.8012 C.2       1 UNK         0.0000 
      3 O3          3.5513  -47.8977    6.5562 O.co2     1 UNK         0.0000 
      4 C4          1.7057  -49.3580    6.4403 C.2       1 UNK         0.0000 
      5 C5         -0.1076  -50.6487    6.3793 C.ar      1 UNK         0.0000 
      6 C6         -1.0211  -51.7084    6.5402 C.ar      1 UNK         0.0000 
      7 C7         -2.3348  -51.5531    6.0492 C.ar      1 UNK         0.0000 
      8 C8         -2.6993  -50.3586    5.3936 C.ar      1 UNK         0.0000 
      9 C9         -1.7635  -49.3099    5.2420 C.ar      1 UNK         0.0000 
     10 C10        -0.4423  -49.4338    5.7433 C.ar      1 UNK         0.0000 
     11 C11         0.7328  -48.6071    5.8015 C.2       1 UNK         0.0000 
     12 C12         0.8592  -47.2049    5.2675 C.3       1 UNK         0.0000 
     13 C13         0.9701  -46.1519    6.3924 C.3       1 UNK         0.0000 
     14 C14        -0.0852  -45.0395    6.3276 C.3       1 UNK         0.0000 
     15 O15        -1.4118  -45.4805    6.0441 O.3       1 UNK         0.0000 
     16 C16        -2.2386  -45.8040    7.0949 C.ar      1 UNK         0.0000 
     17 C17        -4.0387  -46.5572    9.1587 C.ar      1 UNK         0.0000 
     18 C18        -2.7241  -47.0517    9.1502 C.ar      1 UNK         0.0000 
     19 C19        -1.8288  -46.6752    8.1339 C.ar      1 UNK         0.0000 
     20 H20        -0.7241  -52.6191    7.0419 H         1 UNK         0.0000 
     21 H21        -3.0568  -52.3474    6.1618 H         1 UNK         0.0000 
     22 H22        -3.7027  -50.2338    5.0158 H         1 UNK         0.0000 
     23 H23        -2.0623  -48.3873    4.7602 H         1 UNK         0.0000 
     24 H24         0.0186  -46.9829    4.6116 H         1 UNK         0.0000 
     25 H25         1.7413  -47.1366    4.6230 H         1 UNK         0.0000 
     26 H26         1.9528  -45.6851    6.3456 H         1 UNK         0.0000 
     27 H27         0.9550  -46.6329    7.3658 H         1 UNK         0.0000 
     28 H28         0.1913  -44.3765    5.5164 H         1 UNK         0.0000 
     29 H29        -0.0677  -44.4348    7.2308 H         1 UNK         0.0000 
     30 H30        -0.8492  -47.1142    8.1369 H         1 UNK         0.0000 
     31 C31        -4.4644  -45.6869    8.1312 C.ar      1 UNK         0.0000 
     32 C32        -3.5686  -45.3157    7.0918 C.ar      1 UNK         0.0000 
     33 C33        -4.0196  -44.4491    6.0697 C.ar      1 UNK         0.0000 
     34 C34        -5.3473  -43.9766    6.0646 C.ar      1 UNK         0.0000 
     35 C35        -6.2357  -44.3575    7.0895 C.ar      1 UNK         0.0000 
     36 C36        -5.7910  -45.2055    8.1244 C.ar      1 UNK         0.0000 
     37 H37        -3.3603  -44.1405    5.2743 H         1 UNK         0.0000 
     38 H38        -5.6744  -43.3185    5.2717 H         1 UNK         0.0000 
     39 H39        -7.2548  -43.9991    7.0843 H         1 UNK         0.0000 
     40 H40        -6.4744  -45.4962    8.9093 H         1 UNK         0.0000 
     41 H41        -2.4004  -47.7370    9.9189 H         1 UNK         0.0000 
     42 H42        -4.7163  -46.8570    9.9410 H         1 UNK         0.0000 
     43 O43         1.2056  -50.5983    6.7955 O.3       1 UNK         0.0000 
@<TRIPOS>BOND
     1    1    2 2    
     2    2    3 1    
     3    2    4 1    
     4    4   11 2    
     5    4   43 1    
     6    5    6 ar   
     7    5   10 ar   
     8    5   43 1    
     9    6    7 ar   
    10    6   20 1    
    11    7    8 ar   
    12    7   21 1    
    13    8    9 ar   
    14    8   22 1    
    15    9   10 ar   
    16    9   23 1    
    17   10   11 1    
    18   11   12 1    
    19   12   24 1    
    20   12   25 1    
    21   12   13 1    
    22   13   14 1    
    23   13   26 1    
    24   13   27 1    
    25   14   15 1    
    26   14   28 1    
    27   14   29 1    
    28   15   16 1    
    29   16   19 ar   
    30   16   32 ar   
    31   17   18 ar   
    32   17   31 ar   
    33   17   42 1    
    34   18   19 ar   
    35   18   41 1    
    36   19   30 1    
    37   31   32 ar   
    38   31   36 ar   
    39   32   33 ar   
    40   33   34 ar   
    41   33   37 1    
    42   34   35 ar   
    43   34   38 1    
    44   35   36 ar   
    45   35   39 1    
    46   36   40 1    
@<TRIPOS>SUBSTRUCTURE
     1 UNK         1 GROUP             0       ****    0 ROOT    
@<TRIPOS>MOLECULE
48
42   45    1
SMALL
USER_CHARGES


@<TRIPOS>ATOM
      1 O1          3.8290  -49.9082    7.3567 O.co2     1 UNK         0.0000 
      2 C2          3.1153  -49.0416    6.8012 C.2       1 UNK         0.0000 
      3 O3          3.5513  -47.8977    6.5562 O.co2     1 UNK         0.0000 
      4 C4          1.7057  -49.3580    6.4403 C.ar      1 UNK         0.0000 
      5 C5         -0.1076  -50.6487    6.3793 C.ar      1 UNK         0.0000 
      6 C6         -1.0211  -51.7084    6.5402 C.ar      1 UNK         0.0000 
      7 C7         -2.3348  -51.5531    6.0492 C.ar      1 UNK         0.0000 
      8 C8         -2.6993  -50.3586    5.3936 C.ar      1 UNK         0.0000 
      9 C9         -1.7635  -49.3099    5.2420 C.ar      1 UNK         0.0000 
     10 C10        -0.4423  -49.4338    5.7433 C.ar      1 UNK         0.0000 
     11 C11         0.7328  -48.6071    5.8015 C.ar      1 UNK         0.0000 
     12 C12         0.8592  -47.2049    5.2675 C.3       1 UNK         0.0000 
     13 C13         0.9701  -46.1519    6.3924 C.3       1 UNK         0.0000 
     14 C14        -0.0852  -45.0395    6.3276 C.3       1 UNK         0.0000 
     15 O15        -1.4118  -45.4805    6.0441 O.3       1 UNK         0.0000 
     16 C16        -2.2386  -45.8040    7.0949 C.ar      1 UNK         0.0000 
     17 C17        -4.0387  -46.5572    9.1587 C.ar      1 UNK         0.0000 
     18 C18        -2.7241  -47.0517    9.1502 C.ar      1 UNK         0.0000 
     19 C19        -1.8288  -46.6752    8.1339 C.ar      1 UNK         0.0000 
     20 H20        -0.7199  -52.6169    7.0356 H         1 UNK         0.0000 
     21 H21        -3.0576  -52.3469    6.1882 H         1 UNK         0.0000 
     22 H22        -3.7118  -50.2473    5.0166 H         1 UNK         0.0000 
     23 H23        -2.0705  -48.4002    4.7397 H         1 UNK         0.0000 
     24 H24         0.0131  -46.9640    4.6248 H         1 UNK         0.0000 
     25 H25         1.7301  -47.1443    4.6207 H         1 UNK         0.0000 
     26 H26         1.9591  -45.7005    6.3499 H         1 UNK         0.0000 
     27 H27         0.9110  -46.6538    7.3587 H         1 UNK         0.0000 
     28 H28         0.1705  -44.3220    5.5455 H         1 UNK         0.0000 
     29 H29        -0.1192  -44.5143    7.2798 H         1 UNK         0.0000 
     30 H30        -0.8103  -47.0528    8.1316 H         1 UNK         0.0000 
     31 H31        -2.3920  -47.7310    9.9288 H         1 UNK         0.0000 
     32 H32        -4.7206  -46.8255    9.9487 H         1 UNK         0.0000 
     33 N33         1.2056  -50.5983    6.7955 N.pl3     1 UNK         0.0000 
     34 H34         1.8007  -51.2569    7.2800 H         1 UNK         0.0000 
     35 C35        -5.5597  -44.3081    6.6989 C.ar      1 UNK         0.0000 
     36 N36        -5.6600  -45.0518    7.8632 N.pl3     1 UNK         0.0000 
     37 C37        -4.4644  -45.6869    8.1312 C.ar      1 UNK         0.0000 
     38 C38        -3.5686  -45.3157    7.0918 C.ar      1 UNK         0.0000 
     39 C39        -4.2909  -44.4502    6.1976 C.ar      1 UNK         0.0000 
     40 H40        -6.5008  -45.1170    8.4174 H         1 UNK         0.0000 
     41 H41        -3.8826  -44.0041    5.3028 H         1 UNK         0.0000 
     42 H42        -6.3950  -43.7376    6.3150 H         1 UNK         0.0000 
@<TRIPOS>BOND
     1    1    2 2    
     2    2    3 1    
     3    2    4 1    
     4    4   11 ar   
     5    4   33 ar   
     6    5    6 ar   
     7    5   10 ar   
     8    5   33 ar   
     9    6    7 ar   
    10    6   20 1    
    11    7    8 ar   
    12    7   21 1    
    13    8    9 ar   
    14    8   22 1    
    15    9   10 ar   
    16    9   23 1    
    17   10   11 ar   
    18   11   12 1    
    19   12   24 1    
    20   12   25 1    
    21   12   13 1    
    22   13   14 1    
    23   13   26 1    
    24   13   27 1    
    25   14   15 1    
    26   14   28 1    
    27   14   29 1    
    28   15   16 1    
    29   16   19 ar   
    30   16   38 ar   
    31   17   18 ar   
    32   17   32 1    
    33   17   37 ar   
    34   18   19 ar   
    35   18   31 1    
    36   19   30 1    
    37   33   34 1    
    38   35   36 ar   
    39   35   39 ar   
    40   35   42 1    
    41   36   37 ar   
    42   36   40 1    
    43   37   38 ar   
    44   38   39 ar   
    45   39   41 1    
@<TRIPOS>SUBSTRUCTURE
     1 UNK         1 GROUP             0       ****    0 ROOT    
@<TRIPOS>MOLECULE
33
38   40    1
SMALL
USER_CHARGES


@<TRIPOS>ATOM
      1 O1          3.8290  -49.9082    7.3567 O.co2     1 UNK         0.0000 
      2 C2          3.1153  -49.0416    6.8012 C.2       1 UNK         0.0000 
      3 O3          3.5513  -47.8977    6.5562 O.co2     1 UNK         0.0000 
      4 C4          1.7057  -49.3580    6.4403 C.ar      1 UNK         0.0000 
      5 C5         -0.1076  -50.6487    6.3793 C.ar      1 UNK         0.0000 
      6 C6         -1.0211  -51.7084    6.5402 C.ar      1 UNK         0.0000 
      7 C7         -2.3348  -51.5531    6.0492 C.ar      1 UNK         0.0000 
      8 C8         -2.6993  -50.3586    5.3936 C.ar      1 UNK         0.0000 
      9 C9         -1.7635  -49.3099    5.2420 C.ar      1 UNK         0.0000 
     10 C10        -0.4423  -49.4338    5.7433 C.ar      1 UNK         0.0000 
     11 C11         0.7328  -48.6071    5.8015 C.ar      1 UNK         0.0000 
     12 C12         0.8592  -47.2049    5.2675 C.3       1 UNK         0.0000 
     13 C13         0.9701  -46.1519    6.3924 C.3       1 UNK         0.0000 
     14 C14        -0.0852  -45.0395    6.3276 C.3       1 UNK         0.0000 
     15 O15        -1.4118  -45.4805    6.0441 O.3       1 UNK         0.0000 
     16 C16        -2.2386  -45.8040    7.0949 C.ar      1 UNK         0.0000 
     17 C17        -1.8288  -46.6752    8.1339 C.ar      1 UNK         0.0000 
     18 C18        -2.7241  -47.0517    9.1502 C.ar      1 UNK         0.0000 
     19 C19        -4.0387  -46.5572    9.1587 C.ar      1 UNK         0.0000 
     20 C20        -4.4644  -45.6869    8.1312 C.ar      1 UNK         0.0000 
     21 C21        -3.5686  -45.3157    7.0918 C.ar      1 UNK         0.0000 
     22 H22        -0.7023  -52.6161    7.0303 H         1 UNK         0.0000 
     23 H23        -3.0458  -52.3536    6.1801 H         1 UNK         0.0000 
     24 H24        -3.7072  -50.2388    5.0052 H         1 UNK         0.0000 
     25 H25        -2.0551  -48.3910    4.7478 H         1 UNK         0.0000 
     26 H26         0.0159  -46.9743    4.6191 H         1 UNK         0.0000 
     27 H27         1.7386  -47.1346    4.6242 H         1 UNK         0.0000 
     28 H28         1.9615  -45.6962    6.3483 H         1 UNK         0.0000 
     29 H29         0.9120  -46.6416    7.3660 H         1 UNK         0.0000 
     30 H30         0.2127  -44.3366    5.5534 H         1 UNK         0.0000 
     31 H31        -0.1290  -44.4882    7.2625 H         1 UNK         0.0000 
     32 H32        -0.8295  -47.0663    8.1798 H         1 UNK         0.0000 
     33 H33        -3.8852  -44.6570    6.3019 H         1 UNK         0.0000 
     34 N34         1.2056  -50.5983    6.7955 N.pl3     1 UNK         0.0000 
     35 H35         1.7946  -51.2602    7.2883 H         1 UNK         0.0000 
     36 H36        -5.4659  -45.2852    8.1272 H         1 UNK         0.0000 
     37 Cl37       -5.1201  -46.9948   10.4290 Cl        1 UNK         0.0000 
     38 H38        -2.3906  -47.7132    9.9337 H         1 UNK         0.0000 
@<TRIPOS>BOND
     1    1    2 2    
     2    2    3 1    
     3    2    4 1    
     4    4   11 ar   
     5    4   34 ar   
     6    5    6 ar   
     7    5   10 ar   
     8    5   34 ar   
     9    6    7 ar   
    10    6   22 1    
    11    7    8 ar   
    12    7   23 1    
    13    8    9 ar   
    14    8   24 1    
    15    9   10 ar   
    16    9   25 1    
    17   10   11 ar   
    18   11   12 1    
    19   12   26 1    
    20   12   27 1    
    21   12   13 1    
    22   13   14 1    
    23   13   28 1    
    24   13   29 1    
    25   14   15 1    
    26   14   30 1    
    27   14   31 1    
    28   15   16 1    
    29   16   17 ar   
    30   16   21 ar   
    31   17   18 ar   
    32   17   32 1    
    33   18   19 ar   
    34   18   38 1    
    35   19   20 ar   
    36   19   37 1    
    37   20   21 ar   
    38   20   36 1    
    39   21   33 1    
    40   34   35 1    
@<TRIPOS>SUBSTRUCTURE
     1 UNK         1 GROUP             0       ****    0 ROOT    
@<TRIPOS>MOLECULE
46
45   48    1
SMALL
USER_CHARGES


@<TRIPOS>ATOM
      1 O1          3.8290  -49.9082    7.3567 O.co2     1 UNK         0.0000 
      2 C2          3.1153  -49.0416    6.8012 C.2       1 UNK         0.0000 
      3 O3          3.5513  -47.8977    6.5562 O.co2     1 UNK         0.0000 
      4 C4          1.7057  -49.3580    6.4403 C.ar      1 UNK         0.0000 
      5 C5         -0.1076  -50.6487    6.3793 C.ar      1 UNK         0.0000 
      6 C6         -1.0211  -51.7084    6.5402 C.ar      1 UNK         0.0000 
      7 C7         -2.3348  -51.5531    6.0492 C.ar      1 UNK         0.0000 
      8 C8         -2.6993  -50.3586    5.3936 C.ar      1 UNK         0.0000 
      9 C9         -1.7635  -49.3099    5.2420 C.ar      1 UNK         0.0000 
     10 C10        -0.4423  -49.4338    5.7433 C.ar      1 UNK         0.0000 
     11 C11         0.7328  -48.6071    5.8015 C.ar      1 UNK         0.0000 
     12 C12         0.8592  -47.2049    5.2675 C.3       1 UNK         0.0000 
     13 C13         0.9701  -46.1519    6.3924 C.3       1 UNK         0.0000 
     14 C14        -0.0852  -45.0395    6.3276 C.3       1 UNK         0.0000 
     15 O15        -1.4118  -45.4805    6.0441 O.3       1 UNK         0.0000 
     16 C16        -2.2386  -45.8040    7.0949 C.ar      1 UNK         0.0000 
     17 C17        -2.7241  -47.0517    9.1502 C.ar      1 UNK         0.0000 
     18 C18        -1.8288  -46.6752    8.1339 C.ar      1 UNK         0.0000 
     19 H19        -0.7132  -52.6229    7.0329 H         1 UNK         0.0000 
     20 H20        -3.0545  -52.3527    6.1707 H         1 UNK         0.0000 
     21 H21        -3.7030  -50.2419    5.0061 H         1 UNK         0.0000 
     22 H22        -2.0721  -48.3943    4.7464 H         1 UNK         0.0000 
     23 H23        -0.0061  -46.9760    4.6505 H         1 UNK         0.0000 
     24 H24         1.7213  -47.1344    4.6061 H         1 UNK         0.0000 
     25 H25         1.9690  -45.7089    6.3799 H         1 UNK         0.0000 
     26 H26         0.8808  -46.6439    7.3587 H         1 UNK         0.0000 
     27 H27         0.1717  -44.3394    5.5303 H         1 UNK         0.0000 
     28 H28        -0.0845  -44.4856    7.2682 H         1 UNK         0.0000 
     29 H29        -0.8187  -47.0603    8.1378 H         1 UNK         0.0000 
     30 C30        -3.5686  -45.3157    7.0918 C.ar      1 UNK         0.0000 
     31 H31        -2.4152  -47.7201    9.9400 H         1 UNK         0.0000 
     32 H32        -3.9438  -44.6426    6.3395 H         1 UNK         0.0000 
     33 N33         1.2056  -50.5983    6.7955 N.pl3     1 UNK         0.0000 
     34 C34        -6.3207  -45.8418    9.6581 C.3       1 UNK         0.0000 
     35 C35        -5.8888  -45.2336    8.2999 C.3       1 UNK         0.0000 
     36 C36        -4.4644  -45.6869    8.1312 C.ar      1 UNK         0.0000 
     37 C37        -4.0387  -46.5572    9.1587 C.ar      1 UNK         0.0000 
     38 C38        -5.1077  -46.8394   10.1797 C.3       1 UNK         0.0000 
     39 H39        -5.4082  -47.8859   10.1334 H         1 UNK         0.0000 
     40 H40        -4.7874  -46.6066   11.1958 H         1 UNK         0.0000 
     41 H41        -7.2806  -46.3579    9.5985 H         1 UNK         0.0000 
     42 H42        -6.4369  -45.0299   10.3793 H         1 UNK         0.0000 
     43 H43        -5.9573  -44.1452    8.3023 H         1 UNK         0.0000 
     44 H44        -6.4922  -45.6107    7.4792 H         1 UNK         0.0000 
     45 H45         1.7939  -51.2706    7.2612 H         1 UNK         0.0000 
@<TRIPOS>BOND
     1    1    2 2    
     2    2    3 1    
     3    2    4 1    
     4    4   11 ar   
     5    4   33 ar   
     6    5    6 ar   
     7    5   10 ar   
     8    5   33 ar   
     9    6    7 ar   
    10    6   19 1    
    11    7    8 ar   
    12    7   20 1    
    13    8    9 ar   
    14    8   21 1    
    15    9   10 ar   
    16    9   22 1    
    17   10   11 ar   
    18   11   12 1    
    19   12   23 1    
    20   12   24 1    
    21   12   13 1    
    22   13   14 1    
    23   13   25 1    
    24   13   26 1    
    25   14   15 1    
    26   14   27 1    
    27   14   28 1    
    28   15   16 1    
    29   16   18 ar   
    30   16   30 ar   
    31   17   18 ar   
    32   17   31 1    
    33   17   37 ar   
    34   18   29 1    
    35   30   32 1    
    36   30   36 ar   
    37   33   45 1    
    38   34   35 1    
    39   34   38 1    
    40   34   41 1    
    41   34   42 1    
    42   35   36 1    
    43   35   43 1    
    44   35   44 1    
    45   36   37 ar   
    46   37   38 1    
    47   38   39 1    
    48   38   40 1    
@<TRIPOS>SUBSTRUCTURE
     1 UNK         1 GROUP             0       ****    0 ROOT    
@<TRIPOS>MOLECULE
35
41   43    1
SMALL
USER_CHARGES


@<TRIPOS>ATOM
      1 O1          3.8290  -49.9082    7.3567 O.co2     1 UNK         0.0000 
      2 C2          3.1153  -49.0416    6.8012 C.2       1 UNK         0.0000 
      3 O3          3.5513  -47.8977    6.5562 O.co2     1 UNK         0.0000 
      4 C4          1.7057  -49.3580    6.4403 C.ar      1 UNK         0.0000 
      5 C5         -0.1076  -50.6487    6.3793 C.ar      1 UNK         0.0000 
      6 C6         -1.0211  -51.7084    6.5402 C.ar      1 UNK         0.0000 
      7 C7         -2.3348  -51.5531    6.0492 C.ar      1 UNK         0.0000 
      8 C8         -2.6993  -50.3586    5.3936 C.ar      1 UNK         0.0000 
      9 C9         -1.7635  -49.3099    5.2420 C.ar      1 UNK         0.0000 
     10 C10        -0.4423  -49.4338    5.7433 C.ar      1 UNK         0.0000 
     11 C11         0.7328  -48.6071    5.8015 C.ar      1 UNK         0.0000 
     12 C12         0.8592  -47.2049    5.2675 C.3       1 UNK         0.0000 
     13 C13         0.9701  -46.1519    6.3924 C.3       1 UNK         0.0000 
     14 C14        -0.0852  -45.0395    6.3276 C.3       1 UNK         0.0000 
     15 O15        -1.4118  -45.4805    6.0441 O.3       1 UNK         0.0000 
     16 C16        -2.2386  -45.8040    7.0949 C.ar      1 UNK         0.0000 
     17 C17        -3.5686  -45.3157    7.0918 C.ar      1 UNK         0.0000 
     18 C18        -4.4644  -45.6869    8.1312 C.ar      1 UNK         0.0000 
     19 C19        -4.0387  -46.5572    9.1587 C.ar      1 UNK         0.0000 
     20 C20        -2.7241  -47.0517    9.1502 C.ar      1 UNK         0.0000 
     21 C21        -1.8288  -46.6752    8.1339 C.ar      1 UNK         0.0000 
     22 H22        -0.7129  -52.6212    7.0272 H         1 UNK         0.0000 
     23 H23        -3.0598  -52.3424    6.1835 H         1 UNK         0.0000 
     24 H24        -3.7032  -50.2405    5.0167 H         1 UNK         0.0000 
     25 H25        -2.0524  -48.3977    4.7405 H         1 UNK         0.0000 
     26 H26         0.0131  -46.9686    4.6236 H         1 UNK         0.0000 
     27 H27         1.7457  -47.1462    4.6367 H         1 UNK         0.0000 
     28 H28         1.9612  -45.6977    6.3661 H         1 UNK         0.0000 
     29 H29         0.8848  -46.6281    7.3706 H         1 UNK         0.0000 
     30 H30         0.1811  -44.3329    5.5373 H         1 UNK         0.0000 
     31 H31        -0.0795  -44.4966    7.2719 H         1 UNK         0.0000 
     32 H32        -3.9102  -44.6446    6.3197 H         1 UNK         0.0000 
     33 H33        -0.8263  -47.0700    8.1450 H         1 UNK         0.0000 
     34 N34         1.2056  -50.5983    6.7955 N.pl3     1 UNK         0.0000 
     35 H35         1.7989  -51.2713    7.2717 H         1 UNK         0.0000 
     36 H36        -2.3970  -47.7283    9.9254 H         1 UNK         0.0000 
     37 Cl37       -5.1201  -46.9948   10.4290 Cl        1 UNK         0.0000 
     38 C38        -5.8681  -45.1581    8.1371 C.3       1 UNK         0.0000 
     39 H39        -6.4002  -45.5495    9.0042 H         1 UNK         0.0000 
     40 H40        -5.8460  -44.0694    8.1853 H         1 UNK         0.0000 
     41 H41        -6.3781  -45.4712    7.2261 H         1 UNK         0.0000 
@<TRIPOS>BOND
     1    1    2 2    
     2    2    3 1    
     3    2    4 1    
     4    4   11 ar   
     5    4   34 ar   
     6    5    6 ar   
     7    5   10 ar   
     8    5   34 ar   
     9    6    7 ar   
    10    6   22 1    
    11    7    8 ar   
    12    7   23 1    
    13    8    9 ar   
    14    8   24 1    
    15    9   10 ar   
    16    9   25 1    
    17   10   11 ar   
    18   11   12 1    
    19   12   26 1    
    20   12   27 1    
    21   12   13 1    
    22   13   14 1    
    23   13   28 1    
    24   13   29 1    
    25   14   15 1    
    26   14   30 1    
    27   14   31 1    
    28   15   16 1    
    29   16   17 ar   
    30   16   21 ar   
    31   17   18 ar   
    32   17   32 1    
    33   18   19 ar   
    34   18   38 1    
    35   19   20 ar   
    36   19   37 1    
    37   20   21 ar   
    38   20   36 1    
    39   21   33 1    
    40   34   35 1    
    41   38   39 1    
    42   38   40 1    
    43   38   41 1    
@<TRIPOS>SUBSTRUCTURE
     1 UNK         1 GROUP             0       ****    0 ROOT    
@<TRIPOS>MOLECULE
31
41   43    1
SMALL
USER_CHARGES


@<TRIPOS>ATOM
      1 O1          3.8290  -49.9082    7.3567 O.co2     1 UNK         0.0000 
      2 C2          3.1153  -49.0416    6.8012 C.2       1 UNK         0.0000 
      3 O3          3.5513  -47.8977    6.5562 O.co2     1 UNK         0.0000 
      4 C4          1.7057  -49.3580    6.4403 C.ar      1 UNK         0.0000 
      5 C5         -0.1076  -50.6487    6.3793 C.ar      1 UNK         0.0000 
      6 C6         -1.0211  -51.7084    6.5402 C.ar      1 UNK         0.0000 
      7 C7         -2.3348  -51.5531    6.0492 C.ar      1 UNK         0.0000 
      8 C8         -2.6993  -50.3586    5.3936 C.ar      1 UNK         0.0000 
      9 C9         -1.7635  -49.3099    5.2420 C.ar      1 UNK         0.0000 
     10 C10        -0.4423  -49.4338    5.7433 C.ar      1 UNK         0.0000 
     11 C11         0.7328  -48.6071    5.8015 C.ar      1 UNK         0.0000 
     12 C12         0.8592  -47.2049    5.2675 C.3       1 UNK         0.0000 
     13 C13         0.9701  -46.1519    6.3924 C.3       1 UNK         0.0000 
     14 C14        -0.0852  -45.0395    6.3276 C.3       1 UNK         0.0000 
     15 O15        -1.4118  -45.4805    6.0441 O.3       1 UNK         0.0000 
     16 C16        -2.2386  -45.8040    7.0949 C.ar      1 UNK         0.0000 
     17 C17        -3.5686  -45.3157    7.0918 C.ar      1 UNK         0.0000 
     18 C18        -4.4644  -45.6869    8.1312 C.ar      1 UNK         0.0000 
     19 C19        -4.0387  -46.5572    9.1587 C.ar      1 UNK         0.0000 
     20 C20        -2.7241  -47.0517    9.1502 C.ar      1 UNK         0.0000 
     21 C21        -1.8288  -46.6752    8.1339 C.ar      1 UNK         0.0000 
     22 H22        -0.7045  -52.6098    7.0335 H         1 UNK         0.0000 
     23 H23        -3.0445  -52.3546    6.1735 H         1 UNK         0.0000 
     24 H24        -3.6974  -50.2566    5.0093 H         1 UNK         0.0000 
     25 H25        -2.0693  -48.4000    4.7401 H         1 UNK         0.0000 
     26 H26         0.0243  -46.9707    4.5968 H         1 UNK         0.0000 
     27 H27         1.7501  -47.1473    4.6441 H         1 UNK         0.0000 
     28 H28         1.9632  -45.7044    6.3698 H         1 UNK         0.0000 
     29 H29         0.8866  -46.6476    7.3564 H         1 UNK         0.0000 
     30 H30         0.1665  -44.3277    5.5376 H         1 UNK         0.0000 
     31 H31        -0.1007  -44.4883    7.2678 H         1 UNK         0.0000 
     32 H32        -3.9061  -44.6441    6.3219 H         1 UNK         0.0000 
     33 H33        -0.8184  -47.0540    8.1480 H         1 UNK         0.0000 
     34 N34         1.2056  -50.5983    6.7955 N.pl3     1 UNK         0.0000 
     35 H35         1.7919  -51.2899    7.2717 H         1 UNK         0.0000 
     36 H36        -2.3915  -47.7206    9.9299 H         1 UNK         0.0000 
     37 H37        -4.7189  -46.8242    9.9515 H         1 UNK         0.0000 
     38 F38        -6.6660  -46.0451    8.7143 F         1 UNK         0.0000 
     39 C39        -5.8656  -45.1516    8.1353 C.3       1 UNK         0.0000 
     40 F40        -5.8874  -44.0079    8.8177 F         1 UNK         0.0000 
     41 F41        -6.2495  -44.9409    6.8773 F         1 UNK         0.0000 
@<TRIPOS>BOND
     1    1    2 2    
     2    2    3 1    
     3    2    4 1    
     4    4   11 ar   
     5    4   34 ar   
     6    5    6 ar   
     7    5   10 ar   
     8    5   34 ar   
     9    6    7 ar   
    10    6   22 1    
    11    7    8 ar   
    12    7   23 1    
    13    8    9 ar   
    14    8   24 1    
    15    9   10 ar   
    16    9   25 1    
    17   10   11 ar   
    18   11   12 1    
    19   12   26 1    
    20   12   27 1    
    21   12   13 1    
    22   13   14 1    
    23   13   28 1    
    24   13   29 1    
    25   14   15 1    
    26   14   30 1    
    27   14   31 1    
    28   15   16 1    
    29   16   17 ar   
    30   16   21 ar   
    31   17   18 ar   
    32   17   32 1    
    33   18   19 ar   
    34   18   39 1    
    35   19   20 ar   
    36   19   37 1    
    37   20   21 ar   
    38   20   36 1    
    39   21   33 1    
    40   34   35 1    
    41   38   39 1    
    42   39   40 1    
    43   39   41 1    
@<TRIPOS>SUBSTRUCTURE
     1 UNK         1 GROUP             0       ****    0 ROOT    
@<TRIPOS>MOLECULE
52
41   43    1
SMALL
USER_CHARGES


@<TRIPOS>ATOM
      1 O1          3.8290  -49.9082    7.3567 O.co2     1 UNK         0.0000 
      2 C2          3.1153  -49.0416    6.8012 C.2       1 UNK         0.0000 
      3 O3          3.5513  -47.8977    6.5562 O.co2     1 UNK         0.0000 
      4 C4          1.7057  -49.3580    6.4403 C.ar      1 UNK         0.0000 
      5 C5         -0.1076  -50.6487    6.3793 C.ar      1 UNK         0.0000 
      6 C6         -1.0211  -51.7084    6.5402 C.ar      1 UNK         0.0000 
      7 C7         -2.3348  -51.5531    6.0492 C.ar      1 UNK         0.0000 
      8 C8         -2.6993  -50.3586    5.3936 C.ar      1 UNK         0.0000 
      9 C9         -1.7635  -49.3099    5.2420 C.ar      1 UNK         0.0000 
     10 C10        -0.4423  -49.4338    5.7433 C.ar      1 UNK         0.0000 
     11 C11         0.7328  -48.6071    5.8015 C.ar      1 UNK         0.0000 
     12 C12         0.8592  -47.2049    5.2675 C.3       1 UNK         0.0000 
     13 C13         0.9701  -46.1519    6.3924 C.3       1 UNK         0.0000 
     14 C14        -0.0852  -45.0395    6.3276 C.3       1 UNK         0.0000 
     15 O15        -1.4118  -45.4805    6.0441 O.3       1 UNK         0.0000 
     16 C16        -2.2386  -45.8040    7.0949 C.ar      1 UNK         0.0000 
     17 C17        -3.5686  -45.3157    7.0918 C.ar      1 UNK         0.0000 
     18 C18        -4.4644  -45.6869    8.1312 C.ar      1 UNK         0.0000 
     19 C19        -5.8681  -45.1581    8.1371 C.3       1 UNK         0.0000 
     20 C20        -4.0387  -46.5572    9.1587 C.ar      1 UNK         0.0000 
     21 Cl21       -5.1201  -46.9948   10.4290 Cl        1 UNK         0.0000 
     22 C22        -2.7241  -47.0517    9.1502 C.ar      1 UNK         0.0000 
     23 C23        -1.8288  -46.6752    8.1339 C.ar      1 UNK         0.0000 
     24 H24        -0.7224  -52.6041    7.0688 H         1 UNK         0.0000 
     25 Cl25       -3.4950  -52.7922    6.2898 Cl        1 UNK         0.0000 
     26 H26        -3.7121  -50.2252    5.0363 H         1 UNK         0.0000 
     27 H27        -2.0666  -48.3848    4.7636 H         1 UNK         0.0000 
     28 H28        -0.0051  -46.9836    4.6456 H         1 UNK         0.0000 
     29 H29         1.7287  -47.1096    4.6097 H         1 UNK         0.0000 
     30 H30         1.9533  -45.6832    6.3734 H         1 UNK         0.0000 
     31 H31         0.9125  -46.6470    7.3581 H         1 UNK         0.0000 
     32 H32         0.2270  -44.3837    5.5224 H         1 UNK         0.0000 
     33 H33        -0.1040  -44.4092    7.2008 H         1 UNK         0.0000 
     34 H34        -3.8752  -44.6308    6.3150 H         1 UNK         0.0000 
     35 H35        -6.4002  -45.5495    9.0042 H         1 UNK         0.0000 
     36 H36        -5.8460  -44.0694    8.1853 H         1 UNK         0.0000 
     37 H37        -6.3781  -45.4712    7.2261 H         1 UNK         0.0000 
     38 H38        -0.8216  -47.0573    8.1897 H         1 UNK         0.0000 
     39 H39        -2.3864  -47.7073    9.9383 H         1 UNK         0.0000 
     40 N40         1.2056  -50.5983    6.7955 N.pl3     1 UNK         0.0000 
     41 H41         1.7745  -51.2457    7.3246 H         1 UNK         0.0000 
@<TRIPOS>BOND
     1    1    2 2    
     2    2    3 1    
     3    2    4 1    
     4    4   11 ar   
     5    4   40 ar   
     6    5    6 ar   
     7    5   10 ar   
     8    5   40 ar   
     9    6    7 ar   
    10    6   24 1    
    11    7    8 ar   
    12    7   25 1    
    13    8    9 ar   
    14    8   26 1    
    15    9   10 ar   
    16    9   27 1    
    17   10   11 ar   
    18   11   12 1    
    19   12   28 1    
    20   12   29 1    
    21   12   13 1    
    22   13   14 1    
    23   13   30 1    
    24   13   31 1    
    25   14   15 1    
    26   14   32 1    
    27   14   33 1    
    28   15   16 1    
    29   16   17 ar   
    30   16   23 ar   
    31   17   18 ar   
    32   17   34 1    
    33   18   19 1    
    34   18   20 ar   
    35   19   35 1    
    36   19   36 1    
    37   19   37 1    
    38   20   21 1    
    39   20   22 ar   
    40   22   23 ar   
    41   22   39 1    
    42   23   38 1    
    43   40   41 1    
@<TRIPOS>SUBSTRUCTURE
     1 UNK         1 GROUP             0       ****    0 ROOT    
@<TRIPOS>MOLECULE
68
43   46    1
SMALL
USER_CHARGES


@<TRIPOS>ATOM
      1 O1          3.8290  -49.9082    7.3567 O.co2     1 UNK         0.0000 
      2 C2          3.1153  -49.0416    6.8012 C.2       1 UNK         0.0000 
      3 O3          3.5513  -47.8977    6.5562 O.co2     1 UNK         0.0000 
      4 C4          1.7057  -49.3580    6.4403 C.2       1 UNK         0.0000 
      5 C5         -0.1076  -50.6487    6.3793 C.ar      1 UNK         0.0000 
      6 C6         -1.0211  -51.7084    6.5402 C.ar      1 UNK         0.0000 
      7 C7         -2.3348  -51.5531    6.0492 C.ar      1 UNK         0.0000 
      8 C8         -2.6993  -50.3586    5.3936 C.ar      1 UNK         0.0000 
      9 C9         -1.7635  -49.3099    5.2420 C.ar      1 UNK         0.0000 
     10 C10        -0.4423  -49.4338    5.7433 C.ar      1 UNK         0.0000 
     11 C11         0.7328  -48.6071    5.8015 C.2       1 UNK         0.0000 
     12 C12         0.8592  -47.2049    5.2675 C.3       1 UNK         0.0000 
     13 C13         0.9701  -46.1519    6.3924 C.3       1 UNK         0.0000 
     14 C14        -0.0852  -45.0395    6.3276 C.3       1 UNK         0.0000 
     15 O15        -1.4118  -45.4805    6.0441 O.3       1 UNK         0.0000 
     16 C16        -2.2386  -45.8040    7.0949 C.ar      1 UNK         0.0000 
     17 C17        -4.0387  -46.5572    9.1587 C.ar      1 UNK         0.0000 
     18 C18        -2.7241  -47.0517    9.1502 C.ar      1 UNK         0.0000 
     19 C19        -1.8288  -46.6752    8.1339 C.ar      1 UNK         0.0000 
     20 H20        -0.7034  -52.6070    7.0404 H         1 UNK         0.0000 
     21 H21        -3.0513  -52.3467    6.1736 H         1 UNK         0.0000 
     22 Cl22       -4.3097  -50.1850    4.7882 Cl        1 UNK         0.0000 
     23 H23        -2.0728  -48.3970    4.7569 H         1 UNK         0.0000 
     24 H24         0.0218  -46.9676    4.6131 H         1 UNK         0.0000 
     25 H25         1.7444  -47.1425    4.6305 H         1 UNK         0.0000 
     26 H26         1.9612  -45.6883    6.3397 H         1 UNK         0.0000 
     27 H27         0.9184  -46.6322    7.3719 H         1 UNK         0.0000 
     28 H28         0.1678  -44.3382    5.5311 H         1 UNK         0.0000 
     29 H29        -0.1286  -44.4945    7.2711 H         1 UNK         0.0000 
     30 H30        -0.8281  -47.0728    8.1796 H         1 UNK         0.0000 
     31 C31        -4.4644  -45.6869    8.1312 C.ar      1 UNK         0.0000 
     32 C32        -3.5686  -45.3157    7.0918 C.ar      1 UNK         0.0000 
     33 C33        -4.0196  -44.4491    6.0697 C.ar      1 UNK         0.0000 
     34 C34        -5.3473  -43.9766    6.0646 C.ar      1 UNK         0.0000 
     35 C35        -6.2357  -44.3575    7.0895 C.ar      1 UNK         0.0000 
     36 C36        -5.7910  -45.2055    8.1244 C.ar      1 UNK         0.0000 
     37 H37        -3.3566  -44.1375    5.2728 H         1 UNK         0.0000 
     38 H38        -5.6797  -43.3197    5.2659 H         1 UNK         0.0000 
     39 H39        -7.2574  -43.9989    7.0776 H         1 UNK         0.0000 
     40 H40        -6.4741  -45.4861    8.9100 H         1 UNK         0.0000 
     41 H41        -2.3905  -47.7208    9.9338 H         1 UNK         0.0000 
     42 H42        -4.7088  -46.8499    9.9538 H         1 UNK         0.0000 
     43 O43         1.2056  -50.5983    6.7955 O.3       1 UNK         0.0000 
@<TRIPOS>BOND
     1    1    2 2    
     2    2    3 1    
     3    2    4 1    
     4    4   11 2    
     5    4   43 1    
     6    5    6 ar   
     7    5   10 ar   
     8    5   43 1    
     9    6    7 ar   
    10    6   20 1    
    11    7    8 ar   
    12    7   21 1    
    13    8    9 ar   
    14    8   22 1    
    15    9   10 ar   
    16    9   23 1    
    17   10   11 1    
    18   11   12 1    
    19   12   24 1    
    20   12   25 1    
    21   12   13 1    
    22   13   14 1    
    23   13   26 1    
    24   13   27 1    
    25   14   15 1    
    26   14   28 1    
    27   14   29 1    
    28   15   16 1    
    29   16   19 ar   
    30   16   32 ar   
    31   17   18 ar   
    32   17   31 ar   
    33   17   42 1    
    34   18   19 ar   
    35   18   41 1    
    36   19   30 1    
    37   31   32 ar   
    38   31   36 ar   
    39   32   33 ar   
    40   33   34 ar   
    41   33   37 1    
    42   34   35 ar   
    43   34   38 1    
    44   35   36 ar   
    45   35   39 1    
    46   36   40 1    
@<TRIPOS>SUBSTRUCTURE
     1 UNK         1 GROUP             0       ****    0 ROOT    
@<TRIPOS>MOLECULE
32
41   43    1
SMALL
USER_CHARGES


@<TRIPOS>ATOM
      1 O1          3.8290  -49.9082    7.3567 O.co2     1 UNK         0.0000 
      2 C2          3.1153  -49.0416    6.8012 C.2       1 UNK         0.0000 
      3 O3          3.5513  -47.8977    6.5562 O.co2     1 UNK         0.0000 
      4 C4          1.7057  -49.3580    6.4403 C.ar      1 UNK         0.0000 
      5 C5         -0.1076  -50.6487    6.3793 C.ar      1 UNK         0.0000 
      6 C6         -1.0211  -51.7084    6.5402 C.ar      1 UNK         0.0000 
      7 C7         -2.3348  -51.5531    6.0492 C.ar      1 UNK         0.0000 
      8 C8         -2.6993  -50.3586    5.3936 C.ar      1 UNK         0.0000 
      9 C9         -1.7635  -49.3099    5.2420 C.ar      1 UNK         0.0000 
     10 C10        -0.4423  -49.4338    5.7433 C.ar      1 UNK         0.0000 
     11 C11         0.7328  -48.6071    5.8015 C.ar      1 UNK         0.0000 
     12 C12         0.8592  -47.2049    5.2675 C.3       1 UNK         0.0000 
     13 C13         0.9701  -46.1519    6.3924 C.3       1 UNK         0.0000 
     14 C14        -0.0852  -45.0395    6.3276 C.3       1 UNK         0.0000 
     15 O15        -1.4118  -45.4805    6.0441 O.3       1 UNK         0.0000 
     16 C16        -2.2386  -45.8040    7.0949 C.ar      1 UNK         0.0000 
     17 C17        -1.8288  -46.6752    8.1339 C.ar      1 UNK         0.0000 
     18 C18        -2.7241  -47.0517    9.1502 C.ar      1 UNK         0.0000 
     19 C19        -4.0387  -46.5572    9.1587 C.ar      1 UNK         0.0000 
     20 C20        -4.4644  -45.6869    8.1312 C.ar      1 UNK         0.0000 
     21 C21        -3.5686  -45.3157    7.0918 C.ar      1 UNK         0.0000 
     22 H22        -0.7046  -52.6159    7.0285 H         1 UNK         0.0000 
     23 H23        -3.0501  -52.3495    6.1856 H         1 UNK         0.0000 
     24 H24        -3.6996  -50.2440    5.0135 H         1 UNK         0.0000 
     25 H25        -2.0578  -48.3985    4.7375 H         1 UNK         0.0000 
     26 H26         0.0042  -46.9752    4.6346 H         1 UNK         0.0000 
     27 H27         1.7317  -47.1431    4.6192 H         1 UNK         0.0000 
     28 H28         1.9623  -45.7060    6.3623 H         1 UNK         0.0000 
     29 H29         0.8936  -46.6265    7.3728 H         1 UNK         0.0000 
     30 H30         0.1887  -44.3342    5.5400 H         1 UNK         0.0000 
     31 H31        -0.0946  -44.4944    7.2724 H         1 UNK         0.0000 
     32 H32        -0.8295  -47.0748    8.1874 H         1 UNK         0.0000 
     33 H33        -3.8999  -44.6521    6.3075 H         1 UNK         0.0000 
     34 N34         1.2056  -50.5983    6.7955 N.pl3     1 UNK         0.0000 
     35 H35         1.8014  -51.2820    7.2689 H         1 UNK         0.0000 
     36 H36        -5.4707  -45.2908    8.1345 H         1 UNK         0.0000 
     37 H37        -2.3882  -47.7177    9.9296 H         1 UNK         0.0000 
     38 C38        -4.9855  -46.9522   10.2531 C.3       1 UNK         0.0000 
     39 H39        -5.9503  -46.4721   10.0896 H         1 UNK         0.0000 
     40 H40        -5.1131  -48.0347   10.2500 H         1 UNK         0.0000 
     41 H41        -4.5810  -46.6367   11.2148 H         1 UNK         0.0000 
@<TRIPOS>BOND
     1    1    2 2    
     2    2    3 1    
     3    2    4 1    
     4    4   11 ar   
     5    4   34 ar   
     6    5    6 ar   
     7    5   10 ar   
     8    5   34 ar   
     9    6    7 ar   
    10    6   22 1    
    11    7    8 ar   
    12    7   23 1    
    13    8    9 ar   
    14    8   24 1    
    15    9   10 ar   
    16    9   25 1    
    17   10   11 ar   
    18   11   12 1    
    19   12   26 1    
    20   12   27 1    
    21   12   13 1    
    22   13   14 1    
    23   13   28 1    
    24   13   29 1    
    25   14   15 1    
    26   14   30 1    
    27   14   31 1    
    28   15   16 1    
    29   16   17 ar   
    30   16   21 ar   
    31   17   18 ar   
    32   17   32 1    
    33   18   19 ar   
    34   18   37 1    
    35   19   20 ar   
    36   19   38 1    
    37   20   21 ar   
    38   20   36 1    
    39   21   33 1    
    40   34   35 1    
    41   38   39 1    
    42   38   40 1    
    43   38   41 1    
@<TRIPOS>SUBSTRUCTURE
     1 UNK         1 GROUP             0       ****    0 ROOT    
@<TRIPOS>MOLECULE
38
48   51    1
SMALL
USER_CHARGES


@<TRIPOS>ATOM
      1 O1          3.8290  -49.9082    7.3567 O.co2     1 UNK         0.0000 
      2 C2          3.1153  -49.0416    6.8012 C.2       1 UNK         0.0000 
      3 O3          3.5513  -47.8977    6.5562 O.co2     1 UNK         0.0000 
      4 C4          1.7057  -49.3580    6.4403 C.ar      1 UNK         0.0000 
      5 C5         -0.1076  -50.6487    6.3793 C.ar      1 UNK         0.0000 
      6 C6         -1.0211  -51.7084    6.5402 C.ar      1 UNK         0.0000 
      7 C7         -2.3348  -51.5531    6.0492 C.ar      1 UNK         0.0000 
      8 C8         -2.6993  -50.3586    5.3936 C.ar      1 UNK         0.0000 
      9 C9         -1.7635  -49.3099    5.2420 C.ar      1 UNK         0.0000 
     10 C10        -0.4423  -49.4338    5.7433 C.ar      1 UNK         0.0000 
     11 C11         0.7328  -48.6071    5.8015 C.ar      1 UNK         0.0000 
     12 C12         0.8592  -47.2049    5.2675 C.3       1 UNK         0.0000 
     13 C13         0.9701  -46.1519    6.3924 C.3       1 UNK         0.0000 
     14 C14        -0.0852  -45.0395    6.3276 C.3       1 UNK         0.0000 
     15 O15        -1.4118  -45.4805    6.0441 O.3       1 UNK         0.0000 
     16 C16        -2.2386  -45.8040    7.0949 C.ar      1 UNK         0.0000 
     17 C17        -3.5686  -45.3157    7.0918 C.ar      1 UNK         0.0000 
     18 C18        -4.4644  -45.6869    8.1312 C.ar      1 UNK         0.0000 
     19 C19        -4.0387  -46.5572    9.1587 C.ar      1 UNK         0.0000 
     20 C20        -2.7241  -47.0517    9.1502 C.ar      1 UNK         0.0000 
     21 C21        -1.8288  -46.6752    8.1339 C.ar      1 UNK         0.0000 
     22 H22        -0.7059  -52.6260    7.0139 H         1 UNK         0.0000 
     23 H23        -3.0594  -52.3477    6.1778 H         1 UNK         0.0000 
     24 H24        -3.7032  -50.2491    5.0028 H         1 UNK         0.0000 
     25 H25        -2.0667  -48.4002    4.7428 H         1 UNK         0.0000 
     26 H26         0.0031  -46.9702    4.6353 H         1 UNK         0.0000 
     27 H27         1.7276  -47.1417    4.6035 H         1 UNK         0.0000 
     28 H28         1.9415  -45.6825    6.2758 H         1 UNK         0.0000 
     29 H29         0.9923  -46.6228    7.3742 H         1 UNK         0.0000 
     30 H30         0.1882  -44.2865    5.5705 H         1 UNK         0.0000 
     31 H31        -0.1165  -44.5483    7.3009 H         1 UNK         0.0000 
     32 H32        -3.9173  -44.6887    6.2884 H         1 UNK         0.0000 
     33 H33        -0.8225  -47.0393    8.1447 H         1 UNK         0.0000 
     34 N34         1.2056  -50.5983    6.7955 N.pl3     1 UNK         0.0000 
     35 H35         1.8010  -51.2775    7.2707 H         1 UNK         0.0000 
     36 H36        -2.3979  -47.7166    9.9337 H         1 UNK         0.0000 
     37 H37        -4.7134  -46.8595    9.9471 H         1 UNK         0.0000 
     38 C38        -8.4850  -44.2207    8.1017 C.ar      1 UNK         0.0000 
     39 C39        -7.8636  -44.5210    9.3081 C.ar      1 UNK         0.0000 
     40 C40        -6.5579  -44.9972    9.3177 C.ar      1 UNK         0.0000 
     41 C41        -5.8736  -45.1730    8.1209 C.ar      1 UNK         0.0000 
     42 C42        -6.4949  -44.8727    6.9145 C.ar      1 UNK         0.0000 
     43 C43        -7.8006  -44.3965    6.9049 C.ar      1 UNK         0.0000 
     44 H44        -9.5015  -43.8500    8.0942 H         1 UNK         0.0000 
     45 H45        -8.3964  -44.3842   10.2399 H         1 UNK         0.0000 
     46 H46        -6.0742  -45.2310   10.2569 H         1 UNK         0.0000 
     47 H47        -5.9621  -45.0095    5.9827 H         1 UNK         0.0000 
     48 H48        -8.2843  -44.1627    5.9657 H         1 UNK         0.0000 
@<TRIPOS>BOND
     1    1    2 2    
     2    2    3 1    
     3    2    4 1    
     4    4   11 ar   
     5    4   34 ar   
     6    5    6 ar   
     7    5   10 ar   
     8    5   34 ar   
     9    6    7 ar   
    10    6   22 1    
    11    7    8 ar   
    12    7   23 1    
    13    8    9 ar   
    14    8   24 1    
    15    9   10 ar   
    16    9   25 1    
    17   10   11 ar   
    18   11   12 1    
    19   12   26 1    
    20   12   27 1    
    21   12   13 1    
    22   13   14 1    
    23   13   28 1    
    24   13   29 1    
    25   14   15 1    
    26   14   30 1    
    27   14   31 1    
    28   15   16 1    
    29   16   17 ar   
    30   16   21 ar   
    31   17   18 ar   
    32   17   32 1    
    33   18   19 ar   
    34   18   41 1    
    35   19   20 ar   
    36   19   37 1    
    37   20   21 ar   
    38   20   36 1    
    39   21   33 1    
    40   34   35 1    
    41   38   39 ar   
    42   38   43 ar   
    43   38   44 1    
    44   39   40 ar   
    45   39   45 1    
    46   40   41 ar   
    47   40   46 1    
    48   41   42 ar   
    49   42   43 ar   
    50   42   47 1    
    51   43   48 1    
@<TRIPOS>SUBSTRUCTURE
     1 UNK         1 GROUP             0       ****    0 ROOT    
@<TRIPOS>MOLECULE
51
44   47    1
SMALL
USER_CHARGES


@<TRIPOS>ATOM
      1 O1          3.8290  -49.9082    7.3567 O.co2     1 UNK         0.0000 
      2 C2          3.1153  -49.0416    6.8012 C.2       1 UNK         0.0000 
      3 O3          3.5513  -47.8977    6.5562 O.co2     1 UNK         0.0000 
      4 C4          1.7057  -49.3580    6.4403 C.ar      1 UNK         0.0000 
      5 C5         -0.1076  -50.6487    6.3793 C.ar      1 UNK         0.0000 
      6 C6         -1.0211  -51.7084    6.5402 C.ar      1 UNK         0.0000 
      7 C7         -2.3348  -51.5531    6.0492 C.ar      1 UNK         0.0000 
      8 C8         -2.6993  -50.3586    5.3936 C.ar      1 UNK         0.0000 
      9 C9         -1.7635  -49.3099    5.2420 C.ar      1 UNK         0.0000 
     10 C10        -0.4423  -49.4338    5.7433 C.ar      1 UNK         0.0000 
     11 C11         0.7328  -48.6071    5.8015 C.ar      1 UNK         0.0000 
     12 C12         0.8592  -47.2049    5.2675 C.3       1 UNK         0.0000 
     13 C13         0.9701  -46.1519    6.3924 C.3       1 UNK         0.0000 
     14 C14        -0.0852  -45.0395    6.3276 C.3       1 UNK         0.0000 
     15 O15        -1.4118  -45.4805    6.0441 O.3       1 UNK         0.0000 
     16 C16        -2.2386  -45.8040    7.0949 C.ar      1 UNK         0.0000 
     17 C17        -4.0387  -46.5572    9.1587 C.ar      1 UNK         0.0000 
     18 C18        -2.7241  -47.0517    9.1502 C.ar      1 UNK         0.0000 
     19 C19        -1.8288  -46.6752    8.1339 C.ar      1 UNK         0.0000 
     20 H20        -0.7134  -52.6215    7.0405 H         1 UNK         0.0000 
     21 H21        -3.0508  -52.3463    6.1749 H         1 UNK         0.0000 
     22 H22        -3.7043  -50.2576    5.0195 H         1 UNK         0.0000 
     23 Cl23       -2.2917  -47.8537    4.4555 Cl        1 UNK         0.0000 
     24 H24         0.0102  -46.9437    4.6340 H         1 UNK         0.0000 
     25 H25         1.7320  -47.1065    4.6135 H         1 UNK         0.0000 
     26 H26         1.9669  -45.7247    6.3571 H         1 UNK         0.0000 
     27 H27         0.9008  -46.6507    7.3614 H         1 UNK         0.0000 
     28 H28         0.1916  -44.3617    5.5196 H         1 UNK         0.0000 
     29 H29        -0.1004  -44.4487    7.2489 H         1 UNK         0.0000 
     30 H30        -0.8177  -47.0426    8.1836 H         1 UNK         0.0000 
     31 C31        -4.4644  -45.6869    8.1312 C.ar      1 UNK         0.0000 
     32 C32        -3.5686  -45.3157    7.0918 C.ar      1 UNK         0.0000 
     33 C33        -4.0196  -44.4491    6.0697 C.ar      1 UNK         0.0000 
     34 C34        -5.3473  -43.9766    6.0646 C.ar      1 UNK         0.0000 
     35 C35        -6.2357  -44.3575    7.0895 C.ar      1 UNK         0.0000 
     36 C36        -5.7910  -45.2055    8.1244 C.ar      1 UNK         0.0000 
     37 H37        -3.3442  -44.1316    5.2922 H         1 UNK         0.0000 
     38 H38        -5.6835  -43.3226    5.2689 H         1 UNK         0.0000 
     39 H39        -7.2534  -43.9904    7.0858 H         1 UNK         0.0000 
     40 H40        -6.4679  -45.4742    8.9196 H         1 UNK         0.0000 
     41 H41        -2.4042  -47.7423    9.9174 H         1 UNK         0.0000 
     42 H42        -4.7124  -46.8315    9.9593 H         1 UNK         0.0000 
     43 N43         1.2056  -50.5983    6.7955 N.pl3     1 UNK         0.0000 
     44 H44         1.7836  -51.2482    7.3065 H         1 UNK         0.0000 
@<TRIPOS>BOND
     1    1    2 2    
     2    2    3 1    
     3    2    4 1    
     4    4   11 ar   
     5    4   43 ar   
     6    5    6 ar   
     7    5   10 ar   
     8    5   43 ar   
     9    6    7 ar   
    10    6   20 1    
    11    7    8 ar   
    12    7   21 1    
    13    8    9 ar   
    14    8   22 1    
    15    9   10 ar   
    16    9   23 1    
    17   10   11 ar   
    18   11   12 1    
    19   12   24 1    
    20   12   25 1    
    21   12   13 1    
    22   13   14 1    
    23   13   26 1    
    24   13   27 1    
    25   14   15 1    
    26   14   28 1    
    27   14   29 1    
    28   15   16 1    
    29   16   19 ar   
    30   16   32 ar   
    31   17   18 ar   
    32   17   31 ar   
    33   17   42 1    
    34   18   19 ar   
    35   18   41 1    
    36   19   30 1    
    37   31   32 ar   
    38   31   36 ar   
    39   32   33 ar   
    40   33   34 ar   
    41   33   37 1    
    42   34   35 ar   
    43   34   38 1    
    44   35   36 ar   
    45   35   39 1    
    46   36   40 1    
    47   43   44 1    
@<TRIPOS>SUBSTRUCTURE
     1 UNK         1 GROUP             0       ****    0 ROOT    
@<TRIPOS>MOLECULE
50
44   46    1
SMALL
USER_CHARGES


@<TRIPOS>ATOM
      1 O1          3.8290  -49.9082    7.3567 O.co2     1 UNK         0.0000 
      2 C2          3.1153  -49.0416    6.8012 C.2       1 UNK         0.0000 
      3 O3          3.5513  -47.8977    6.5562 O.co2     1 UNK         0.0000 
      4 C4          1.7057  -49.3580    6.4403 C.ar      1 UNK         0.0000 
      5 C5         -0.1076  -50.6487    6.3793 C.ar      1 UNK         0.0000 
      6 C6         -1.0211  -51.7084    6.5402 C.ar      1 UNK         0.0000 
      7 C7         -2.3348  -51.5531    6.0492 C.ar      1 UNK         0.0000 
      8 C8         -2.6993  -50.3586    5.3936 C.ar      1 UNK         0.0000 
      9 C9         -1.7635  -49.3099    5.2420 C.ar      1 UNK         0.0000 
     10 C10        -0.4423  -49.4338    5.7433 C.ar      1 UNK         0.0000 
     11 C11         0.7328  -48.6071    5.8015 C.ar      1 UNK         0.0000 
     12 C12         0.8592  -47.2049    5.2675 C.3       1 UNK         0.0000 
     13 C13         0.9701  -46.1519    6.3924 C.3       1 UNK         0.0000 
     14 C14        -0.0852  -45.0395    6.3276 C.3       1 UNK         0.0000 
     15 O15        -1.4118  -45.4805    6.0441 O.3       1 UNK         0.0000 
     16 C16        -2.2386  -45.8040    7.0949 C.ar      1 UNK         0.0000 
     17 C17        -3.5686  -45.3157    7.0918 C.ar      1 UNK         0.0000 
     18 C18        -4.4644  -45.6869    8.1312 C.ar      1 UNK         0.0000 
     19 C19        -5.8681  -45.1581    8.1371 C.3       1 UNK         0.0000 
     20 C20        -4.0387  -46.5572    9.1587 C.ar      1 UNK         0.0000 
     21 Cl21       -5.1201  -46.9948   10.4290 Cl        1 UNK         0.0000 
     22 C22        -2.7241  -47.0517    9.1502 C.ar      1 UNK         0.0000 
     23 C23        -2.2701  -47.9759   10.2409 C.3       1 UNK         0.0000 
     24 C24        -1.8288  -46.6752    8.1339 C.ar      1 UNK         0.0000 
     25 H25        -0.7067  -52.6178    7.0362 H         1 UNK         0.0000 
     26 H26        -3.0581  -52.3514    6.1775 H         1 UNK         0.0000 
     27 H27        -3.7101  -50.2562    5.0183 H         1 UNK         0.0000 
     28 Cl28       -2.2917  -47.8537    4.4555 Cl        1 UNK         0.0000 
     29 H29         0.0030  -46.9568    4.6339 H         1 UNK         0.0000 
     30 H30         1.7274  -47.1084    4.6231 H         1 UNK         0.0000 
     31 H31         1.9698  -45.7033    6.3686 H         1 UNK         0.0000 
     32 H32         0.8890  -46.6546    7.3564 H         1 UNK         0.0000 
     33 H33         0.1720  -44.3433    5.5268 H         1 UNK         0.0000 
     34 H34        -0.0953  -44.4403    7.2415 H         1 UNK         0.0000 
     35 H35        -3.9038  -44.6437    6.3188 H         1 UNK         0.0000 
     36 H36        -6.4002  -45.5495    9.0042 H         1 UNK         0.0000 
     37 H37        -5.8460  -44.0694    8.1853 H         1 UNK         0.0000 
     38 H38        -6.3781  -45.4712    7.2261 H         1 UNK         0.0000 
     39 H39        -1.2301  -48.2549   10.0713 H         1 UNK         0.0000 
     40 H40        -2.3589  -47.4729   11.2038 H         1 UNK         0.0000 
     41 H41        -2.8913  -48.8716   10.2402 H         1 UNK         0.0000 
     42 H42        -0.8148  -47.0508    8.1361 H         1 UNK         0.0000 
     43 N43         1.2056  -50.5983    6.7955 N.pl3     1 UNK         0.0000 
     44 H44         1.7922  -51.2766    7.2850 H         1 UNK         0.0000 
@<TRIPOS>BOND
     1    1    2 2    
     2    2    3 1    
     3    2    4 1    
     4    4   11 ar   
     5    4   43 ar   
     6    5    6 ar   
     7    5   10 ar   
     8    5   43 ar   
     9    6    7 ar   
    10    6   25 1    
    11    7    8 ar   
    12    7   26 1    
    13    8    9 ar   
    14    8   27 1    
    15    9   10 ar   
    16    9   28 1    
    17   10   11 ar   
    18   11   12 1    
    19   12   29 1    
    20   12   30 1    
    21   12   13 1    
    22   13   14 1    
    23   13   31 1    
    24   13   32 1    
    25   14   15 1    
    26   14   33 1    
    27   14   34 1    
    28   15   16 1    
    29   16   17 ar   
    30   16   24 ar   
    31   17   18 ar   
    32   17   35 1    
    33   18   19 1    
    34   18   20 ar   
    35   19   36 1    
    36   19   37 1    
    37   19   38 1    
    38   20   21 1    
    39   20   22 ar   
    40   22   23 1    
    41   22   24 ar   
    42   23   39 1    
    43   23   40 1    
    44   23   41 1    
    45   24   42 1    
    46   43   44 1    
@<TRIPOS>SUBSTRUCTURE
     1 UNK         1 GROUP             0       ****    0 ROOT    
@<TRIPOS>MOLECULE
28
41   43    1
SMALL
USER_CHARGES


@<TRIPOS>ATOM
      1 O1          3.8290  -49.9082    7.3567 O.co2     1 UNK         0.0000 
      2 C2          3.1153  -49.0416    6.8012 C.2       1 UNK         0.0000 
      3 O3          3.5513  -47.8977    6.5562 O.co2     1 UNK         0.0000 
      4 C4          1.7057  -49.3580    6.4403 C.ar      1 UNK         0.0000 
      5 C5         -0.1076  -50.6487    6.3793 C.ar      1 UNK         0.0000 
      6 C6         -1.0211  -51.7084    6.5402 C.ar      1 UNK         0.0000 
      7 C7         -2.3348  -51.5531    6.0492 C.ar      1 UNK         0.0000 
      8 C8         -2.6993  -50.3586    5.3936 C.ar      1 UNK         0.0000 
      9 C9         -1.7635  -49.3099    5.2420 C.ar      1 UNK         0.0000 
     10 C10        -0.4423  -49.4338    5.7433 C.ar      1 UNK         0.0000 
     11 C11         0.7328  -48.6071    5.8015 C.ar      1 UNK         0.0000 
     12 C12         0.8592  -47.2049    5.2675 C.3       1 UNK         0.0000 
     13 C13         0.9701  -46.1519    6.3924 C.3       1 UNK         0.0000 
     14 C14        -0.0852  -45.0395    6.3276 C.3       1 UNK         0.0000 
     15 O15        -1.4118  -45.4805    6.0441 O.3       1 UNK         0.0000 
     16 C16        -2.2386  -45.8040    7.0949 C.ar      1 UNK         0.0000 
     17 C17        -3.5686  -45.3157    7.0918 C.ar      1 UNK         0.0000 
     18 C18        -4.4644  -45.6869    8.1312 C.ar      1 UNK         0.0000 
     19 C19        -4.0387  -46.5572    9.1587 C.ar      1 UNK         0.0000 
     20 C20        -2.7241  -47.0517    9.1502 C.ar      1 UNK         0.0000 
     21 C21        -1.8288  -46.6752    8.1339 C.ar      1 UNK         0.0000 
     22 H22        -0.7145  -52.6192    7.0355 H         1 UNK         0.0000 
     23 H23        -3.0622  -52.3428    6.1750 H         1 UNK         0.0000 
     24 H24        -3.7001  -50.2453    5.0007 H         1 UNK         0.0000 
     25 H25        -2.0664  -48.4011    4.7393 H         1 UNK         0.0000 
     26 H26        -0.0082  -46.9736    4.6477 H         1 UNK         0.0000 
     27 H27         1.7186  -47.1136    4.6023 H         1 UNK         0.0000 
     28 H28         1.9715  -45.7151    6.3726 H         1 UNK         0.0000 
     29 H29         0.8770  -46.6463    7.3590 H         1 UNK         0.0000 
     30 H30         0.1763  -44.3435    5.5271 H         1 UNK         0.0000 
     31 H31        -0.0882  -44.4436    7.2399 H         1 UNK         0.0000 
     32 H32        -0.8250  -47.0710    8.1796 H         1 UNK         0.0000 
     33 N33         1.2056  -50.5983    6.7955 N.pl3     1 UNK         0.0000 
     34 H34         1.7954  -51.2620    7.2823 H         1 UNK         0.0000 
     35 H35        -2.4022  -47.7239    9.9310 H         1 UNK         0.0000 
     36 H36        -4.7224  -46.8410    9.9448 H         1 UNK         0.0000 
     37 H37        -5.4754  -45.3044    8.1428 H         1 UNK         0.0000 
     38 C38        -4.0283  -44.4107    5.9875 C.3       1 UNK         0.0000 
     39 H39        -5.0710  -44.1386    6.1510 H         1 UNK         0.0000 
     40 H40        -3.4150  -43.5096    5.9771 H         1 UNK         0.0000 
     41 H41        -3.9329  -44.9261    5.0318 H         1 UNK         0.0000 
@<TRIPOS>BOND
     1    1    2 2    
     2    2    3 1    
     3    2    4 1    
     4    4   11 ar   
     5    4   33 ar   
     6    5    6 ar   
     7    5   10 ar   
     8    5   33 ar   
     9    6    7 ar   
    10    6   22 1    
    11    7    8 ar   
    12    7   23 1    
    13    8    9 ar   
    14    8   24 1    
    15    9   10 ar   
    16    9   25 1    
    17   10   11 ar   
    18   11   12 1    
    19   12   26 1    
    20   12   27 1    
    21   12   13 1    
    22   13   14 1    
    23   13   28 1    
    24   13   29 1    
    25   14   15 1    
    26   14   30 1    
    27   14   31 1    
    28   15   16 1    
    29   16   17 ar   
    30   16   21 ar   
    31   17   18 ar   
    32   17   38 1    
    33   18   19 ar   
    34   18   37 1    
    35   19   20 ar   
    36   19   36 1    
    37   20   21 ar   
    38   20   35 1    
    39   21   32 1    
    40   33   34 1    
    41   38   39 1    
    42   38   40 1    
    43   38   41 1    
@<TRIPOS>SUBSTRUCTURE
     1 UNK         1 GROUP             0       ****    0 ROOT    
@<TRIPOS>MOLECULE
66
43   46    1
SMALL
USER_CHARGES


@<TRIPOS>ATOM
      1 O1          3.8290  -49.9082    7.3567 O.co2     1 UNK         0.0000 
      2 C2          3.1153  -49.0416    6.8012 C.2       1 UNK         0.0000 
      3 O3          3.5513  -47.8977    6.5562 O.co2     1 UNK         0.0000 
      4 C4          1.7057  -49.3580    6.4403 C.2       1 UNK         0.0000 
      5 S5          1.2056  -50.5983    6.7955 S.3       1 UNK         0.0000 
      6 C6         -0.1076  -50.6487    6.3793 C.ar      1 UNK         0.0000 
      7 C7         -1.0211  -51.7084    6.5402 C.ar      1 UNK         0.0000 
      8 C8         -2.3348  -51.5531    6.0492 C.ar      1 UNK         0.0000 
      9 C9         -2.6993  -50.3586    5.3936 C.ar      1 UNK         0.0000 
     10 C10        -1.7635  -49.3099    5.2420 C.ar      1 UNK         0.0000 
     11 C11        -0.4423  -49.4338    5.7433 C.ar      1 UNK         0.0000 
     12 C12         0.7328  -48.6071    5.8015 C.2       1 UNK         0.0000 
     13 C13         0.8592  -47.2049    5.2675 C.3       1 UNK         0.0000 
     14 C14         0.9701  -46.1519    6.3924 C.3       1 UNK         0.0000 
     15 C15        -0.0852  -45.0395    6.3276 C.3       1 UNK         0.0000 
     16 O16        -1.4118  -45.4805    6.0441 O.3       1 UNK         0.0000 
     17 C17        -2.2386  -45.8040    7.0949 C.ar      1 UNK         0.0000 
     18 C18        -4.0387  -46.5572    9.1587 C.ar      1 UNK         0.0000 
     19 C19        -2.7241  -47.0517    9.1502 C.ar      1 UNK         0.0000 
     20 C20        -1.8288  -46.6752    8.1339 C.ar      1 UNK         0.0000 
     21 Cl21       -0.5440  -53.1713    7.3271 Cl        1 UNK         0.0000 
     22 H22        -3.0665  -52.3487    6.1852 H         1 UNK         0.0000 
     23 H23        -3.7041  -50.2366    4.9978 H         1 UNK         0.0000 
     24 H24        -2.0775  -48.4051    4.7475 H         1 UNK         0.0000 
     25 H25        -0.0134  -46.9794    4.6713 H         1 UNK         0.0000 
     26 H26         1.7142  -47.1344    4.5915 H         1 UNK         0.0000 
     27 H27         1.9719  -45.7226    6.4021 H         1 UNK         0.0000 
     28 H28         0.8514  -46.6592    7.3484 H         1 UNK         0.0000 
     29 H29         0.1912  -44.3279    5.5521 H         1 UNK         0.0000 
     30 H30        -0.0649  -44.5094    7.2764 H         1 UNK         0.0000 
     31 H31        -0.8270  -47.0879    8.1796 H         1 UNK         0.0000 
     32 C32        -4.4644  -45.6869    8.1312 C.ar      1 UNK         0.0000 
     33 C33        -3.5686  -45.3157    7.0918 C.ar      1 UNK         0.0000 
     34 C34        -4.0196  -44.4491    6.0697 C.ar      1 UNK         0.0000 
     35 C35        -5.3473  -43.9766    6.0646 C.ar      1 UNK         0.0000 
     36 C36        -6.2357  -44.3575    7.0895 C.ar      1 UNK         0.0000 
     37 C37        -5.7910  -45.2055    8.1244 C.ar      1 UNK         0.0000 
     38 H38        -3.3504  -44.1292    5.2771 H         1 UNK         0.0000 
     39 H39        -5.6868  -43.3233    5.2695 H         1 UNK         0.0000 
     40 H40        -7.2603  -44.0030    7.0887 H         1 UNK         0.0000 
     41 H41        -6.4785  -45.4823    8.9200 H         1 UNK         0.0000 
     42 H42        -2.3910  -47.7252    9.9334 H         1 UNK         0.0000 
     43 H43        -4.7097  -46.8547    9.9559 H         1 UNK         0.0000 
@<TRIPOS>BOND
     1    1    2 2    
     2    2    3 1    
     3    2    4 1    
     4    4    5 1    
     5    4   12 2    
     6    5    6 1    
     7    6    7 ar   
     8    6   11 ar   
     9    7    8 ar   
    10    7   21 1    
    11    8    9 ar   
    12    8   22 1    
    13    9   10 ar   
    14    9   23 1    
    15   10   11 ar   
    16   10   24 1    
    17   11   12 1    
    18   12   13 1    
    19   13   25 1    
    20   13   26 1    
    21   13   14 1    
    22   14   15 1    
    23   14   27 1    
    24   14   28 1    
    25   15   16 1    
    26   15   29 1    
    27   15   30 1    
    28   16   17 1    
    29   17   20 ar   
    30   17   33 ar   
    31   18   19 ar   
    32   18   32 ar   
    33   18   43 1    
    34   19   20 ar   
    35   19   42 1    
    36   20   31 1    
    37   32   33 ar   
    38   32   37 ar   
    39   33   34 ar   
    40   34   35 ar   
    41   34   38 1    
    42   35   36 ar   
    43   35   39 1    
    44   36   37 ar   
    45   36   40 1    
    46   37   41 1    
@<TRIPOS>SUBSTRUCTURE
     1 UNK         1 GROUP             0       ****    0 ROOT    
@<TRIPOS>MOLECULE
39
48   51    1
SMALL
USER_CHARGES


@<TRIPOS>ATOM
      1 O1          3.8290  -49.9082    7.3567 O.co2     1 UNK         0.0000 
      2 C2          3.1153  -49.0416    6.8012 C.2       1 UNK         0.0000 
      3 O3          3.5513  -47.8977    6.5562 O.co2     1 UNK         0.0000 
      4 C4          1.7057  -49.3580    6.4403 C.ar      1 UNK         0.0000 
      5 C5         -0.1076  -50.6487    6.3793 C.ar      1 UNK         0.0000 
      6 C6         -1.0211  -51.7084    6.5402 C.ar      1 UNK         0.0000 
      7 C7         -2.3348  -51.5531    6.0492 C.ar      1 UNK         0.0000 
      8 C8         -2.6993  -50.3586    5.3936 C.ar      1 UNK         0.0000 
      9 C9         -1.7635  -49.3099    5.2420 C.ar      1 UNK         0.0000 
     10 C10        -0.4423  -49.4338    5.7433 C.ar      1 UNK         0.0000 
     11 C11         0.7328  -48.6071    5.8015 C.ar      1 UNK         0.0000 
     12 C12         0.8592  -47.2049    5.2675 C.3       1 UNK         0.0000 
     13 C13         0.9701  -46.1519    6.3924 C.3       1 UNK         0.0000 
     14 C14        -0.0852  -45.0395    6.3276 C.3       1 UNK         0.0000 
     15 O15        -1.4118  -45.4805    6.0441 O.3       1 UNK         0.0000 
     16 C16        -2.2386  -45.8040    7.0949 C.ar      1 UNK         0.0000 
     17 C17        -1.8288  -46.6752    8.1339 C.ar      1 UNK         0.0000 
     18 C18        -2.7241  -47.0517    9.1502 C.ar      1 UNK         0.0000 
     19 C19        -4.0387  -46.5572    9.1587 C.ar      1 UNK         0.0000 
     20 C20        -4.4644  -45.6869    8.1312 C.ar      1 UNK         0.0000 
     21 C21        -3.5686  -45.3157    7.0918 C.ar      1 UNK         0.0000 
     22 H22        -0.6920  -52.5868    7.0759 H         1 UNK         0.0000 
     23 H23        -3.0308  -52.3550    6.1892 H         1 UNK         0.0000 
     24 H24        -3.7074  -50.2356    5.0311 H         1 UNK         0.0000 
     25 H25        -2.0821  -48.3796    4.7754 H         1 UNK         0.0000 
     26 H26        -0.0202  -47.0019    4.6394 H         1 UNK         0.0000 
     27 H27         1.6955  -47.1490    4.5708 H         1 UNK         0.0000 
     28 H28         1.9610  -45.6760    6.3096 H         1 UNK         0.0000 
     29 H29         0.9905  -46.6851    7.3286 H         1 UNK         0.0000 
     30 H30         0.1563  -44.3106    5.5508 H         1 UNK         0.0000 
     31 H31        -0.1338  -44.4661    7.2608 H         1 UNK         0.0000 
     32 H32        -0.8106  -47.0469    8.1514 H         1 UNK         0.0000 
     33 H33        -3.8627  -44.6562    6.2793 H         1 UNK         0.0000 
     34 N34         1.2056  -50.5983    6.7955 N.pl3     1 UNK         0.0000 
     35 H35         1.8041  -51.2418    7.3150 H         1 UNK         0.0000 
     36 H36        -5.4759  -45.3067    8.1324 H         1 UNK         0.0000 
     37 H37        -2.3717  -47.7374    9.9100 H         1 UNK         0.0000 
     38 C38        -7.1012  -47.7055   12.0086 C.ar      1 UNK         0.0000 
     39 C39        -7.1856  -46.4785   11.3389 C.ar      1 UNK         0.0000 
     40 C40        -6.1590  -46.0861   10.4563 C.ar      1 UNK         0.0000 
     41 C41        -5.0441  -46.9329   10.1939 C.ar      1 UNK         0.0000 
     42 C42        -4.9730  -48.1548   10.9072 C.ar      1 UNK         0.0000 
     43 C43        -5.9909  -48.5336   11.8053 C.ar      1 UNK         0.0000 
     44 H44        -7.8972  -48.0130   12.6677 H         1 UNK         0.0000 
     45 H45        -8.0378  -45.8375   11.4827 H         1 UNK         0.0000 
     46 H46        -6.2618  -45.1287    9.9675 H         1 UNK         0.0000 
     47 H47        -4.1432  -48.8322   10.7437 H         1 UNK         0.0000 
     48 H48        -5.9211  -49.4782   12.3196 H         1 UNK         0.0000 
@<TRIPOS>BOND
     1    1    2 2    
     2    2    3 1    
     3    2    4 1    
     4    4   11 ar   
     5    4   34 ar   
     6    5    6 ar   
     7    5   10 ar   
     8    5   34 ar   
     9    6    7 ar   
    10    6   22 1    
    11    7    8 ar   
    12    7   23 1    
    13    8    9 ar   
    14    8   24 1    
    15    9   10 ar   
    16    9   25 1    
    17   10   11 ar   
    18   11   12 1    
    19   12   26 1    
    20   12   27 1    
    21   12   13 1    
    22   13   14 1    
    23   13   28 1    
    24   13   29 1    
    25   14   15 1    
    26   14   30 1    
    27   14   31 1    
    28   15   16 1    
    29   16   17 ar   
    30   16   21 ar   
    31   17   18 ar   
    32   17   32 1    
    33   18   19 ar   
    34   18   37 1    
    35   19   20 ar   
    36   19   41 1    
    37   20   21 ar   
    38   20   36 1    
    39   21   33 1    
    40   34   35 1    
    41   38   39 ar   
    42   38   43 ar   
    43   38   44 1    
    44   39   40 ar   
    45   39   45 1    
    46   40   41 ar   
    47   40   46 1    
    48   41   42 ar   
    49   42   43 ar   
    50   42   47 1    
    51   43   48 1    
@<TRIPOS>SUBSTRUCTURE
     1 UNK         1 GROUP             0       ****    0 ROOT    
@<TRIPOS>MOLECULE
37
44   46    1
SMALL
USER_CHARGES


@<TRIPOS>ATOM
      1 O1          3.8290  -49.9082    7.3567 O.co2     1 UNK         0.0000 
      2 C2          3.1153  -49.0416    6.8012 C.2       1 UNK         0.0000 
      3 O3          3.5513  -47.8977    6.5562 O.co2     1 UNK         0.0000 
      4 C4          1.7057  -49.3580    6.4403 C.ar      1 UNK         0.0000 
      5 C5         -0.1076  -50.6487    6.3793 C.ar      1 UNK         0.0000 
      6 C6         -1.0211  -51.7084    6.5402 C.ar      1 UNK         0.0000 
      7 C7         -2.3348  -51.5531    6.0492 C.ar      1 UNK         0.0000 
      8 C8         -2.6993  -50.3586    5.3936 C.ar      1 UNK         0.0000 
      9 C9         -1.7635  -49.3099    5.2420 C.ar      1 UNK         0.0000 
     10 C10        -0.4423  -49.4338    5.7433 C.ar      1 UNK         0.0000 
     11 C11         0.7328  -48.6071    5.8015 C.ar      1 UNK         0.0000 
     12 C12         0.8592  -47.2049    5.2675 C.3       1 UNK         0.0000 
     13 C13         0.9701  -46.1519    6.3924 C.3       1 UNK         0.0000 
     14 C14        -0.0852  -45.0395    6.3276 C.3       1 UNK         0.0000 
     15 O15        -1.4118  -45.4805    6.0441 O.3       1 UNK         0.0000 
     16 C16        -2.2386  -45.8040    7.0949 C.ar      1 UNK         0.0000 
     17 C17        -3.5686  -45.3157    7.0918 C.ar      1 UNK         0.0000 
     18 C18        -4.4644  -45.6869    8.1312 C.ar      1 UNK         0.0000 
     19 C19        -5.8681  -45.1581    8.1371 C.3       1 UNK         0.0000 
     20 C20        -4.0387  -46.5572    9.1587 C.ar      1 UNK         0.0000 
     21 Cl21       -5.1201  -46.9948   10.4290 Cl        1 UNK         0.0000 
     22 C22        -2.7241  -47.0517    9.1502 C.ar      1 UNK         0.0000 
     23 C23        -2.2701  -47.9759   10.2409 C.3       1 UNK         0.0000 
     24 C24        -1.8288  -46.6752    8.1339 C.ar      1 UNK         0.0000 
     25 H25        -0.7212  -52.6110    7.0372 H         1 UNK         0.0000 
     26 H26        -3.0585  -52.3412    6.1735 H         1 UNK         0.0000 
     27 H27        -3.6996  -50.2361    5.0045 H         1 UNK         0.0000 
     28 H28        -2.0690  -48.3996    4.7376 H         1 UNK         0.0000 
     29 H29        -0.0064  -46.9831    4.6416 H         1 UNK         0.0000 
     30 H30         1.7283  -47.1205    4.6125 H         1 UNK         0.0000 
     31 H31         1.9709  -45.7229    6.3871 H         1 UNK         0.0000 
     32 H32         0.8645  -46.6487    7.3582 H         1 UNK         0.0000 
     33 H33         0.1630  -44.3447    5.5203 H         1 UNK         0.0000 
     34 H34        -0.0869  -44.4529    7.2435 H         1 UNK         0.0000 
     35 H35        -3.9148  -44.6325    6.3316 H         1 UNK         0.0000 
     36 H36        -6.4002  -45.5495    9.0042 H         1 UNK         0.0000 
     37 H37        -5.8460  -44.0694    8.1853 H         1 UNK         0.0000 
     38 H38        -6.3781  -45.4712    7.2261 H         1 UNK         0.0000 
     39 H39        -1.2301  -48.2549   10.0713 H         1 UNK         0.0000 
     40 H40        -2.3589  -47.4729   11.2038 H         1 UNK         0.0000 
     41 H41        -2.8913  -48.8716   10.2402 H         1 UNK         0.0000 
     42 H42        -0.8135  -47.0374    8.1526 H         1 UNK         0.0000 
     43 N43         1.2056  -50.5983    6.7955 N.pl3     1 UNK         0.0000 
     44 H44         1.7710  -51.2486    7.3092 H         1 UNK         0.0000 
@<TRIPOS>BOND
     1    1    2 2    
     2    2    3 1    
     3    2    4 1    
     4    4   11 ar   
     5    4   43 ar   
     6    5    6 ar   
     7    5   10 ar   
     8    5   43 ar   
     9    6    7 ar   
    10    6   25 1    
    11    7    8 ar   
    12    7   26 1    
    13    8    9 ar   
    14    8   27 1    
    15    9   10 ar   
    16    9   28 1    
    17   10   11 ar   
    18   11   12 1    
    19   12   29 1    
    20   12   30 1    
    21   12   13 1    
    22   13   14 1    
    23   13   31 1    
    24   13   32 1    
    25   14   15 1    
    26   14   33 1    
    27   14   34 1    
    28   15   16 1    
    29   16   17 ar   
    30   16   24 ar   
    31   17   18 ar   
    32   17   35 1    
    33   18   19 1    
    34   18   20 ar   
    35   19   36 1    
    36   19   37 1    
    37   19   38 1    
    38   20   21 1    
    39   20   22 ar   
    40   22   23 1    
    41   22   24 ar   
    42   23   39 1    
    43   23   40 1    
    44   23   41 1    
    45   24   42 1    
    46   43   44 1    
@<TRIPOS>SUBSTRUCTURE
     1 UNK         1 GROUP             0       ****    0 ROOT    
@<TRIPOS>MOLECULE
30
41   43    1
SMALL
USER_CHARGES


@<TRIPOS>ATOM
      1 O1          3.8290  -49.9082    7.3567 O.co2     1 UNK         0.0000 
      2 C2          3.1153  -49.0416    6.8012 C.2       1 UNK         0.0000 
      3 O3          3.5513  -47.8977    6.5562 O.co2     1 UNK         0.0000 
      4 C4          1.7057  -49.3580    6.4403 C.ar      1 UNK         0.0000 
      5 C5         -0.1076  -50.6487    6.3793 C.ar      1 UNK         0.0000 
      6 C6         -1.0211  -51.7084    6.5402 C.ar      1 UNK         0.0000 
      7 C7         -2.3348  -51.5531    6.0492 C.ar      1 UNK         0.0000 
      8 C8         -2.6993  -50.3586    5.3936 C.ar      1 UNK         0.0000 
      9 C9         -1.7635  -49.3099    5.2420 C.ar      1 UNK         0.0000 
     10 C10        -0.4423  -49.4338    5.7433 C.ar      1 UNK         0.0000 
     11 C11         0.7328  -48.6071    5.8015 C.ar      1 UNK         0.0000 
     12 C12         0.8592  -47.2049    5.2675 C.3       1 UNK         0.0000 
     13 C13         0.9701  -46.1519    6.3924 C.3       1 UNK         0.0000 
     14 C14        -0.0852  -45.0395    6.3276 C.3       1 UNK         0.0000 
     15 O15        -1.4118  -45.4805    6.0441 O.3       1 UNK         0.0000 
     16 C16        -2.2386  -45.8040    7.0949 C.ar      1 UNK         0.0000 
     17 C17        -3.5686  -45.3157    7.0918 C.ar      1 UNK         0.0000 
     18 C18        -4.4644  -45.6869    8.1312 C.ar      1 UNK         0.0000 
     19 C19        -4.0387  -46.5572    9.1587 C.ar      1 UNK         0.0000 
     20 C20        -2.7241  -47.0517    9.1502 C.ar      1 UNK         0.0000 
     21 C21        -1.8288  -46.6752    8.1339 C.ar      1 UNK         0.0000 
     22 H22        -0.7204  -52.6138    7.0359 H         1 UNK         0.0000 
     23 H23        -3.0486  -52.3504    6.1714 H         1 UNK         0.0000 
     24 H24        -3.7027  -50.2503    5.0027 H         1 UNK         0.0000 
     25 H25        -2.0648  -48.3997    4.7460 H         1 UNK         0.0000 
     26 H26         0.0122  -46.9681    4.6204 H         1 UNK         0.0000 
     27 H27         1.7418  -47.1300    4.6246 H         1 UNK         0.0000 
     28 H28         1.9590  -45.6928    6.3654 H         1 UNK         0.0000 
     29 H29         0.8958  -46.6530    7.3548 H         1 UNK         0.0000 
     30 H30         0.1688  -44.3269    5.5430 H         1 UNK         0.0000 
     31 H31        -0.1123  -44.4947    7.2717 H         1 UNK         0.0000 
     32 H32        -3.9189  -44.6501    6.3196 H         1 UNK         0.0000 
     33 H33        -0.8154  -47.0466    8.1460 H         1 UNK         0.0000 
     34 N34         1.2056  -50.5983    6.7955 N.pl3     1 UNK         0.0000 
     35 H35         1.7839  -51.2788    7.2840 H         1 UNK         0.0000 
     36 H36        -2.3884  -47.7199    9.9303 H         1 UNK         0.0000 
     37 H37        -4.7134  -46.8339    9.9545 H         1 UNK         0.0000 
     38 C38        -5.8681  -45.1581    8.1371 C.3       1 UNK         0.0000 
     39 H39        -6.4002  -45.5495    9.0042 H         1 UNK         0.0000 
     40 H40        -5.8460  -44.0694    8.1853 H         1 UNK         0.0000 
     41 H41        -6.3781  -45.4712    7.2261 H         1 UNK         0.0000 
@<TRIPOS>BOND
     1    1    2 2    
     2    2    3 1    
     3    2    4 1    
     4    4   11 ar   
     5    4   34 ar   
     6    5    6 ar   
     7    5   10 ar   
     8    5   34 ar   
     9    6    7 ar   
    10    6   22 1    
    11    7    8 ar   
    12    7   23 1    
    13    8    9 ar   
    14    8   24 1    
    15    9   10 ar   
    16    9   25 1    
    17   10   11 ar   
    18   11   12 1    
    19   12   26 1    
    20   12   27 1    
    21   12   13 1    
    22   13   14 1    
    23   13   28 1    
    24   13   29 1    
    25   14   15 1    
    26   14   30 1    
    27   14   31 1    
    28   15   16 1    
    29   16   17 ar   
    30   16   21 ar   
    31   17   18 ar   
    32   17   32 1    
    33   18   19 ar   
    34   18   38 1    
    35   19   20 ar   
    36   19   37 1    
    37   20   21 ar   
    38   20   36 1    
    39   21   33 1    
    40   34   35 1    
    41   38   39 1    
    42   38   40 1    
    43   38   41 1    
@<TRIPOS>SUBSTRUCTURE
     1 UNK         1 GROUP             0       ****    0 ROOT    
@<TRIPOS>MOLECULE
54
44   47    1
SMALL
USER_CHARGES


@<TRIPOS>ATOM
      1 O1          3.8290  -49.9082    7.3567 O.co2     1 UNK         0.0000 
      2 C2          3.1153  -49.0416    6.8012 C.2       1 UNK         0.0000 
      3 O3          3.5513  -47.8977    6.5562 O.co2     1 UNK         0.0000 
      4 C4          1.7057  -49.3580    6.4403 C.ar      1 UNK         0.0000 
      5 C5         -0.1076  -50.6487    6.3793 C.ar      1 UNK         0.0000 
      6 C6         -1.0211  -51.7084    6.5402 C.ar      1 UNK         0.0000 
      7 C7         -2.3348  -51.5531    6.0492 C.ar      1 UNK         0.0000 
      8 C8         -2.6993  -50.3586    5.3936 C.ar      1 UNK         0.0000 
      9 C9         -1.7635  -49.3099    5.2420 C.ar      1 UNK         0.0000 
     10 C10        -0.4423  -49.4338    5.7433 C.ar      1 UNK         0.0000 
     11 C11         0.7328  -48.6071    5.8015 C.ar      1 UNK         0.0000 
     12 C12         0.8592  -47.2049    5.2675 C.3       1 UNK         0.0000 
     13 C13         0.9701  -46.1519    6.3924 C.3       1 UNK         0.0000 
     14 C14        -0.0852  -45.0395    6.3276 C.3       1 UNK         0.0000 
     15 O15        -1.4118  -45.4805    6.0441 O.3       1 UNK         0.0000 
     16 C16        -2.2386  -45.8040    7.0949 C.ar      1 UNK         0.0000 
     17 C17        -4.0387  -46.5572    9.1587 C.ar      1 UNK         0.0000 
     18 C18        -2.7241  -47.0517    9.1502 C.ar      1 UNK         0.0000 
     19 C19        -1.8288  -46.6752    8.1339 C.ar      1 UNK         0.0000 
     20 H20        -0.7321  -52.6077    7.0492 H         1 UNK         0.0000 
     21 Cl21       -3.4950  -52.7922    6.2898 Cl        1 UNK         0.0000 
     22 H22        -3.7100  -50.2345    5.0261 H         1 UNK         0.0000 
     23 H23        -2.0589  -48.3939    4.7615 H         1 UNK         0.0000 
     24 H24        -0.0145  -46.9770    4.6553 H         1 UNK         0.0000 
     25 H25         1.7229  -47.1270    4.5998 H         1 UNK         0.0000 
     26 H26         1.9664  -45.7077    6.3788 H         1 UNK         0.0000 
     27 H27         0.8760  -46.6674    7.3491 H         1 UNK         0.0000 
     28 H28         0.1856  -44.3221    5.5530 H         1 UNK         0.0000 
     29 H29        -0.0934  -44.5027    7.2756 H         1 UNK         0.0000 
     30 H30        -0.8282  -47.0651    8.1704 H         1 UNK         0.0000 
     31 C31        -4.4644  -45.6869    8.1312 C.ar      1 UNK         0.0000 
     32 C32        -3.5686  -45.3157    7.0918 C.ar      1 UNK         0.0000 
     33 C33        -4.0196  -44.4491    6.0697 C.ar      1 UNK         0.0000 
     34 C34        -5.3473  -43.9766    6.0646 C.ar      1 UNK         0.0000 
     35 C35        -6.2357  -44.3575    7.0895 C.ar      1 UNK         0.0000 
     36 C36        -5.7910  -45.2055    8.1244 C.ar      1 UNK         0.0000 
     37 H37        -3.3438  -44.1301    5.2875 H         1 UNK         0.0000 
     38 H38        -5.6830  -43.3270    5.2658 H         1 UNK         0.0000 
     39 H39        -7.2531  -43.9916    7.0850 H         1 UNK         0.0000 
     40 H40        -6.4777  -45.4796    8.9109 H         1 UNK         0.0000 
     41 H41        -2.4019  -47.7188    9.9304 H         1 UNK         0.0000 
     42 H42        -4.7157  -46.8444    9.9487 H         1 UNK         0.0000 
     43 N43         1.2056  -50.5983    6.7955 N.pl3     1 UNK         0.0000 
     44 H44         1.7779  -51.2772    7.3063 H         1 UNK         0.0000 
@<TRIPOS>BOND
     1    1    2 2    
     2    2    3 1    
     3    2    4 1    
     4    4   11 ar   
     5    4   43 ar   
     6    5    6 ar   
     7    5   10 ar   
     8    5   43 ar   
     9    6    7 ar   
    10    6   20 1    
    11    7    8 ar   
    12    7   21 1    
    13    8    9 ar   
    14    8   22 1    
    15    9   10 ar   
    16    9   23 1    
    17   10   11 ar   
    18   11   12 1    
    19   12   24 1    
    20   12   25 1    
    21   12   13 1    
    22   13   14 1    
    23   13   26 1    
    24   13   27 1    
    25   14   15 1    
    26   14   28 1    
    27   14   29 1    
    28   15   16 1    
    29   16   19 ar   
    30   16   32 ar   
    31   17   18 ar   
    32   17   31 ar   
    33   17   42 1    
    34   18   19 ar   
    35   18   41 1    
    36   19   30 1    
    37   31   32 ar   
    38   31   36 ar   
    39   32   33 ar   
    40   33   34 ar   
    41   33   37 1    
    42   34   35 ar   
    43   34   38 1    
    44   35   36 ar   
    45   35   39 1    
    46   36   40 1    
    47   43   44 1    
@<TRIPOS>SUBSTRUCTURE
     1 UNK         1 GROUP             0       ****    0 ROOT    
@<TRIPOS>MOLECULE
44
44   47    1
SMALL
USER_CHARGES


@<TRIPOS>ATOM
      1 O1          3.8290  -49.9082    7.3567 O.co2     1 UNK         0.0000 
      2 C2          3.1153  -49.0416    6.8012 C.2       1 UNK         0.0000 
      3 O3          3.5513  -47.8977    6.5562 O.co2     1 UNK         0.0000 
      4 C4          1.7057  -49.3580    6.4403 C.ar      1 UNK         0.0000 
      5 C5         -0.1076  -50.6487    6.3793 C.ar      1 UNK         0.0000 
      6 C6         -1.0211  -51.7084    6.5402 C.ar      1 UNK         0.0000 
      7 C7         -2.3348  -51.5531    6.0492 C.ar      1 UNK         0.0000 
      8 C8         -2.6993  -50.3586    5.3936 C.ar      1 UNK         0.0000 
      9 C9         -1.7635  -49.3099    5.2420 C.ar      1 UNK         0.0000 
     10 C10        -0.4423  -49.4338    5.7433 C.ar      1 UNK         0.0000 
     11 C11         0.7328  -48.6071    5.8015 C.ar      1 UNK         0.0000 
     12 C12         0.8592  -47.2049    5.2675 C.3       1 UNK         0.0000 
     13 C13         0.9701  -46.1519    6.3924 C.3       1 UNK         0.0000 
     14 C14        -0.0852  -45.0395    6.3276 C.3       1 UNK         0.0000 
     15 O15        -1.4118  -45.4805    6.0441 O.3       1 UNK         0.0000 
     16 C16        -2.2386  -45.8040    7.0949 C.ar      1 UNK         0.0000 
     17 C17        -4.0387  -46.5572    9.1587 C.ar      1 UNK         0.0000 
     18 C18        -2.7241  -47.0517    9.1502 C.ar      1 UNK         0.0000 
     19 C19        -1.8288  -46.6752    8.1339 C.ar      1 UNK         0.0000 
     20 H20        -0.7160  -52.6165    7.0280 H         1 UNK         0.0000 
     21 H21        -3.0600  -52.3432    6.1750 H         1 UNK         0.0000 
     22 H22        -3.7015  -50.2348    5.0094 H         1 UNK         0.0000 
     23 H23        -2.0510  -48.3989    4.7381 H         1 UNK         0.0000 
     24 H24        -0.0088  -46.9765    4.6468 H         1 UNK         0.0000 
     25 H25         1.7221  -47.1366    4.5986 H         1 UNK         0.0000 
     26 H26         1.9703  -45.7202    6.3871 H         1 UNK         0.0000 
     27 H27         0.8705  -46.6560    7.3528 H         1 UNK         0.0000 
     28 H28         0.1753  -44.3398    5.5312 H         1 UNK         0.0000 
     29 H29        -0.0863  -44.4784    7.2596 H         1 UNK         0.0000 
     30 H30        -0.8359  -47.0833    8.1696 H         1 UNK         0.0000 
     31 C31        -4.4644  -45.6869    8.1312 C.ar      1 UNK         0.0000 
     32 C32        -3.5686  -45.3157    7.0918 C.ar      1 UNK         0.0000 
     33 C33        -4.0196  -44.4491    6.0697 C.ar      1 UNK         0.0000 
     34 C34        -5.3473  -43.9766    6.0646 C.ar      1 UNK         0.0000 
     35 C35        -6.2357  -44.3575    7.0895 C.ar      1 UNK         0.0000 
     36 C36        -5.7910  -45.2055    8.1244 C.ar      1 UNK         0.0000 
     37 H37        -3.3574  -44.1401    5.2765 H         1 UNK         0.0000 
     38 H38        -5.6848  -43.3253    5.2726 H         1 UNK         0.0000 
     39 H39        -7.2516  -43.9991    7.0818 H         1 UNK         0.0000 
     40 H40        -6.4796  -45.4740    8.9086 H         1 UNK         0.0000 
     41 H41        -2.3962  -47.7129    9.9373 H         1 UNK         0.0000 
     42 Cl42       -5.1201  -46.9948   10.4290 Cl        1 UNK         0.0000 
     43 N43         1.2056  -50.5983    6.7955 N.pl3     1 UNK         0.0000 
     44 H44         1.7829  -51.2653    7.2828 H         1 UNK         0.0000 
@<TRIPOS>BOND
     1    1    2 2    
     2    2    3 1    
     3    2    4 1    
     4    4   11 ar   
     5    4   43 ar   
     6    5    6 ar   
     7    5   10 ar   
     8    5   43 ar   
     9    6    7 ar   
    10    6   20 1    
    11    7    8 ar   
    12    7   21 1    
    13    8    9 ar   
    14    8   22 1    
    15    9   10 ar   
    16    9   23 1    
    17   10   11 ar   
    18   11   12 1    
    19   12   24 1    
    20   12   25 1    
    21   12   13 1    
    22   13   14 1    
    23   13   26 1    
    24   13   27 1    
    25   14   15 1    
    26   14   28 1    
    27   14   29 1    
    28   15   16 1    
    29   16   19 ar   
    30   16   32 ar   
    31   17   18 ar   
    32   17   31 ar   
    33   17   42 1    
    34   18   19 ar   
    35   18   41 1    
    36   19   30 1    
    37   31   32 ar   
    38   31   36 ar   
    39   32   33 ar   
    40   33   34 ar   
    41   33   37 1    
    42   34   35 ar   
    43   34   38 1    
    44   35   36 ar   
    45   35   39 1    
    46   36   40 1    
    47   43   44 1    
@<TRIPOS>SUBSTRUCTURE
     1 UNK         1 GROUP             0       ****    0 ROOT    
@<TRIPOS>MOLECULE
23
43   46    1
SMALL
USER_CHARGES


@<TRIPOS>ATOM
      1 O1          3.8290  -49.9082    7.3567 O.co2     1 UNK         0.0000 
      2 C2          3.1153  -49.0416    6.8012 C.2       1 UNK         0.0000 
      3 O3          3.5513  -47.8977    6.5562 O.co2     1 UNK         0.0000 
      4 C4          1.7057  -49.3580    6.4403 C.2       1 UNK         0.0000 
      5 S5          1.2056  -50.5983    6.7955 S.3       1 UNK         0.0000 
      6 C6         -0.1076  -50.6487    6.3793 C.ar      1 UNK         0.0000 
      7 C7         -1.0211  -51.7084    6.5402 C.ar      1 UNK         0.0000 
      8 C8         -2.3348  -51.5531    6.0492 C.ar      1 UNK         0.0000 
      9 C9         -2.6993  -50.3586    5.3936 C.ar      1 UNK         0.0000 
     10 C10        -1.7635  -49.3099    5.2420 C.ar      1 UNK         0.0000 
     11 C11        -0.4423  -49.4338    5.7433 C.ar      1 UNK         0.0000 
     12 C12         0.7328  -48.6071    5.8015 C.2       1 UNK         0.0000 
     13 C13         0.8592  -47.2049    5.2675 C.3       1 UNK         0.0000 
     14 C14         0.9701  -46.1519    6.3924 C.3       1 UNK         0.0000 
     15 C15        -0.0852  -45.0395    6.3276 C.3       1 UNK         0.0000 
     16 O16        -1.4118  -45.4805    6.0441 O.3       1 UNK         0.0000 
     17 C17        -2.2386  -45.8040    7.0949 C.ar      1 UNK         0.0000 
     18 C18        -4.0387  -46.5572    9.1587 C.ar      1 UNK         0.0000 
     19 C19        -2.7241  -47.0517    9.1502 C.ar      1 UNK         0.0000 
     20 C20        -1.8288  -46.6752    8.1339 C.ar      1 UNK         0.0000 
     21 H21        -0.7093  -52.6199    7.0317 H         1 UNK         0.0000 
     22 H22        -3.0667  -52.3342    6.1775 H         1 UNK         0.0000 
     23 H23        -3.6967  -50.2342    5.0012 H         1 UNK         0.0000 
     24 H24        -2.0785  -48.4054    4.7466 H         1 UNK         0.0000 
     25 H25         0.0099  -46.9699    4.6305 H         1 UNK         0.0000 
     26 H26         1.7326  -47.1263    4.6082 H         1 UNK         0.0000 
     27 H27         1.9688  -45.7101    6.3635 H         1 UNK         0.0000 
     28 H28         0.8891  -46.6604    7.3531 H         1 UNK         0.0000 
     29 H29         0.1992  -44.3584    5.5285 H         1 UNK         0.0000 
     30 H30        -0.0993  -44.4682    7.2558 H         1 UNK         0.0000 
     31 H31        -0.8253  -47.0822    8.1930 H         1 UNK         0.0000 
     32 C32        -4.4644  -45.6869    8.1312 C.ar      1 UNK         0.0000 
     33 C33        -3.5686  -45.3157    7.0918 C.ar      1 UNK         0.0000 
     34 C34        -4.0196  -44.4491    6.0697 C.ar      1 UNK         0.0000 
     35 C35        -5.3473  -43.9766    6.0646 C.ar      1 UNK         0.0000 
     36 C36        -6.2357  -44.3575    7.0895 C.ar      1 UNK         0.0000 
     37 C37        -5.7910  -45.2055    8.1244 C.ar      1 UNK         0.0000 
     38 H38        -3.3652  -44.1278    5.2657 H         1 UNK         0.0000 
     39 H39        -5.6898  -43.3179    5.2736 H         1 UNK         0.0000 
     40 H40        -7.2549  -44.0029    7.0831 H         1 UNK         0.0000 
     41 H41        -6.4874  -45.4800    8.9091 H         1 UNK         0.0000 
     42 H42        -2.3896  -47.7236    9.9242 H         1 UNK         0.0000 
     43 H43        -4.7079  -46.8605    9.9538 H         1 UNK         0.0000 
@<TRIPOS>BOND
     1    1    2 2    
     2    2    3 1    
     3    2    4 1    
     4    4    5 1    
     5    4   12 2    
     6    5    6 1    
     7    6    7 ar   
     8    6   11 ar   
     9    7    8 ar   
    10    7   21 1    
    11    8    9 ar   
    12    8   22 1    
    13    9   10 ar   
    14    9   23 1    
    15   10   11 ar   
    16   10   24 1    
    17   11   12 1    
    18   12   13 1    
    19   13   25 1    
    20   13   26 1    
    21   13   14 1    
    22   14   15 1    
    23   14   27 1    
    24   14   28 1    
    25   15   16 1    
    26   15   29 1    
    27   15   30 1    
    28   16   17 1    
    29   17   20 ar   
    30   17   33 ar   
    31   18   19 ar   
    32   18   32 ar   
    33   18   43 1    
    34   19   20 ar   
    35   19   42 1    
    36   20   31 1    
    37   32   33 ar   
    38   32   37 ar   
    39   33   34 ar   
    40   34   35 ar   
    41   34   38 1    
    42   35   36 ar   
    43   35   39 1    
    44   36   37 ar   
    45   36   40 1    
    46   37   41 1    
@<TRIPOS>SUBSTRUCTURE
     1 UNK         1 GROUP             0       ****    0 ROOT    
@<TRIPOS>MOLECULE
29
41   43    1
SMALL
USER_CHARGES


@<TRIPOS>ATOM
      1 O1          3.8290  -49.9082    7.3567 O.co2     1 UNK         0.0000 
      2 C2          3.1153  -49.0416    6.8012 C.2       1 UNK         0.0000 
      3 O3          3.5513  -47.8977    6.5562 O.co2     1 UNK         0.0000 
      4 C4          1.7057  -49.3580    6.4403 C.ar      1 UNK         0.0000 
      5 C5         -0.1076  -50.6487    6.3793 C.ar      1 UNK         0.0000 
      6 C6         -1.0211  -51.7084    6.5402 C.ar      1 UNK         0.0000 
      7 C7         -2.3348  -51.5531    6.0492 C.ar      1 UNK         0.0000 
      8 C8         -2.6993  -50.3586    5.3936 C.ar      1 UNK         0.0000 
      9 C9         -1.7635  -49.3099    5.2420 C.ar      1 UNK         0.0000 
     10 C10        -0.4423  -49.4338    5.7433 C.ar      1 UNK         0.0000 
     11 C11         0.7328  -48.6071    5.8015 C.ar      1 UNK         0.0000 
     12 C12         0.8592  -47.2049    5.2675 C.3       1 UNK         0.0000 
     13 C13         0.9701  -46.1519    6.3924 C.3       1 UNK         0.0000 
     14 C14        -0.0852  -45.0395    6.3276 C.3       1 UNK         0.0000 
     15 O15        -1.4118  -45.4805    6.0441 O.3       1 UNK         0.0000 
     16 C16        -2.2386  -45.8040    7.0949 C.ar      1 UNK         0.0000 
     17 C17        -3.5686  -45.3157    7.0918 C.ar      1 UNK         0.0000 
     18 C18        -4.4644  -45.6869    8.1312 C.ar      1 UNK         0.0000 
     19 C19        -4.0387  -46.5572    9.1587 C.ar      1 UNK         0.0000 
     20 C20        -2.7241  -47.0517    9.1502 C.ar      1 UNK         0.0000 
     21 C21        -1.8288  -46.6752    8.1339 C.ar      1 UNK         0.0000 
     22 H22        -0.7072  -52.6209    7.0238 H         1 UNK         0.0000 
     23 H23        -3.0578  -52.3469    6.1761 H         1 UNK         0.0000 
     24 H24        -3.7051  -50.2399    5.0148 H         1 UNK         0.0000 
     25 H25        -2.0585  -48.3995    4.7346 H         1 UNK         0.0000 
     26 H26        -0.0042  -46.9690    4.6317 H         1 UNK         0.0000 
     27 H27         1.7241  -47.1360    4.6030 H         1 UNK         0.0000 
     28 H28         1.9663  -45.7060    6.3745 H         1 UNK         0.0000 
     29 H29         0.8770  -46.6497    7.3596 H         1 UNK         0.0000 
     30 H30         0.2181  -44.3046    5.5812 H         1 UNK         0.0000 
     31 H31        -0.1178  -44.5230    7.2920 H         1 UNK         0.0000 
     32 H32        -0.8194  -47.0526    8.1536 H         1 UNK         0.0000 
     33 N33         1.2056  -50.5983    6.7955 N.pl3     1 UNK         0.0000 
     34 H34         1.7975  -51.3034    7.2524 H         1 UNK         0.0000 
     35 H35        -2.3860  -47.7236    9.9304 H         1 UNK         0.0000 
     36 H36        -4.7055  -46.8307    9.9587 H         1 UNK         0.0000 
     37 H37        -5.4682  -45.2948    8.1559 H         1 UNK         0.0000 
     38 F38        -5.3015  -44.0830    6.2014 F         1 UNK         0.0000 
     39 C39        -4.0269  -44.4067    5.9901 C.3       1 UNK         0.0000 
     40 F40        -3.2699  -43.3107    5.9935 F         1 UNK         0.0000 
     41 F41        -3.9036  -45.0441    4.8270 F         1 UNK         0.0000 
@<TRIPOS>BOND
     1    1    2 2    
     2    2    3 1    
     3    2    4 1    
     4    4   11 ar   
     5    4   33 ar   
     6    5    6 ar   
     7    5   10 ar   
     8    5   33 ar   
     9    6    7 ar   
    10    6   22 1    
    11    7    8 ar   
    12    7   23 1    
    13    8    9 ar   
    14    8   24 1    
    15    9   10 ar   
    16    9   25 1    
    17   10   11 ar   
    18   11   12 1    
    19   12   26 1    
    20   12   27 1    
    21   12   13 1    
    22   13   14 1    
    23   13   28 1    
    24   13   29 1    
    25   14   15 1    
    26   14   30 1    
    27   14   31 1    
    28   15   16 1    
    29   16   17 ar   
    30   16   21 ar   
    31   17   18 ar   
    32   17   39 1    
    33   18   19 ar   
    34   18   37 1    
    35   19   20 ar   
    36   19   36 1    
    37   20   21 ar   
    38   20   35 1    
    39   21   32 1    
    40   33   34 1    
    41   38   39 1    
    42   39   40 1    
    43   39   41 1    
@<TRIPOS>SUBSTRUCTURE
     1 UNK         1 GROUP             0       ****    0 ROOT    
@<TRIPOS>MOLECULE
40
49   52    1
SMALL
USER_CHARGES


@<TRIPOS>ATOM
      1 O1          3.8290  -49.9082    7.3567 O.co2     1 UNK         0.0000 
      2 C2          3.1153  -49.0416    6.8012 C.2       1 UNK         0.0000 
      3 O3          3.5513  -47.8977    6.5562 O.co2     1 UNK         0.0000 
      4 C4          1.7057  -49.3580    6.4403 C.ar      1 UNK         0.0000 
      5 C5         -0.1076  -50.6487    6.3793 C.ar      1 UNK         0.0000 
      6 C6         -1.0211  -51.7084    6.5402 C.ar      1 UNK         0.0000 
      7 C7         -2.3348  -51.5531    6.0492 C.ar      1 UNK         0.0000 
      8 C8         -2.6993  -50.3586    5.3936 C.ar      1 UNK         0.0000 
      9 C9         -1.7635  -49.3099    5.2420 C.ar      1 UNK         0.0000 
     10 C10        -0.4423  -49.4338    5.7433 C.ar      1 UNK         0.0000 
     11 C11         0.7328  -48.6071    5.8015 C.ar      1 UNK         0.0000 
     12 C12         0.8592  -47.2049    5.2675 C.3       1 UNK         0.0000 
     13 C13         0.9701  -46.1519    6.3924 C.3       1 UNK         0.0000 
     14 C14        -0.0852  -45.0395    6.3276 C.3       1 UNK         0.0000 
     15 O15        -1.4118  -45.4805    6.0441 O.3       1 UNK         0.0000 
     16 C16        -2.2386  -45.8040    7.0949 C.ar      1 UNK         0.0000 
     17 C17        -3.5686  -45.3157    7.0918 C.ar      1 UNK         0.0000 
     18 C18        -4.4644  -45.6869    8.1312 C.ar      1 UNK         0.0000 
     19 C19        -4.0387  -46.5572    9.1587 C.ar      1 UNK         0.0000 
     20 C20        -2.7241  -47.0517    9.1502 C.ar      1 UNK         0.0000 
     21 C21        -1.8288  -46.6752    8.1339 C.ar      1 UNK         0.0000 
     22 H22        -0.7115  -52.6183    7.0307 H         1 UNK         0.0000 
     23 H23        -3.0678  -52.3391    6.1720 H         1 UNK         0.0000 
     24 H24        -3.7034  -50.2378    5.0028 H         1 UNK         0.0000 
     25 H25        -2.0734  -48.4176    4.7241 H         1 UNK         0.0000 
     26 H26        -0.0023  -46.9349    4.6537 H         1 UNK         0.0000 
     27 H27         1.6984  -47.1659    4.5676 H         1 UNK         0.0000 
     28 H28         1.9547  -45.6758    6.3871 H         1 UNK         0.0000 
     29 H29         0.9100  -46.6505    7.3567 H         1 UNK         0.0000 
     30 H30         0.2284  -44.3461    5.5490 H         1 UNK         0.0000 
     31 H31        -0.1533  -44.4873    7.2668 H         1 UNK         0.0000 
     32 H32        -3.9386  -44.7216    6.2804 H         1 UNK         0.0000 
     33 H33        -0.8189  -47.0536    8.1330 H         1 UNK         0.0000 
     34 N34         1.2056  -50.5983    6.7955 N.pl3     1 UNK         0.0000 
     35 H35         1.7854  -51.2720    7.2831 H         1 UNK         0.0000 
     36 H36        -2.4045  -47.7513    9.9165 H         1 UNK         0.0000 
     37 H37        -4.7241  -46.8581    9.9391 H         1 UNK         0.0000 
     38 O38        -5.7644  -45.2241    8.1151 O.3       1 UNK         0.0000 
     39 C39        -6.7185  -42.7745    4.8915 C.ar      1 UNK         0.0000 
     40 C40        -7.6991  -43.5673    5.4760 C.ar      1 UNK         0.0000 
     41 C41        -7.3803  -44.3857    6.5531 C.ar      1 UNK         0.0000 
     42 C42        -6.0809  -44.4114    7.0456 C.ar      1 UNK         0.0000 
     43 C43        -5.1004  -43.6187    6.4611 C.ar      1 UNK         0.0000 
     44 C44        -5.4192  -42.8002    5.3840 C.ar      1 UNK         0.0000 
     45 H45        -6.9667  -42.1373    4.0529 H         1 UNK         0.0000 
     46 H46        -8.7107  -43.5472    5.0925 H         1 UNK         0.0000 
     47 H47        -8.1437  -45.0029    7.0081 H         1 UNK         0.0000 
     48 H48        -4.0888  -43.6387    6.8446 H         1 UNK         0.0000 
     49 H49        -4.6558  -42.1830    4.9290 H         1 UNK         0.0000 
@<TRIPOS>BOND
     1    1    2 2    
     2    2    3 1    
     3    2    4 1    
     4    4   11 ar   
     5    4   34 ar   
     6    5    6 ar   
     7    5   10 ar   
     8    5   34 ar   
     9    6    7 ar   
    10    6   22 1    
    11    7    8 ar   
    12    7   23 1    
    13    8    9 ar   
    14    8   24 1    
    15    9   10 ar   
    16    9   25 1    
    17   10   11 ar   
    18   11   12 1    
    19   12   26 1    
    20   12   27 1    
    21   12   13 1    
    22   13   14 1    
    23   13   28 1    
    24   13   29 1    
    25   14   15 1    
    26   14   30 1    
    27   14   31 1    
    28   15   16 1    
    29   16   17 ar   
    30   16   21 ar   
    31   17   18 ar   
    32   17   32 1    
    33   18   19 ar   
    34   18   38 1    
    35   19   20 ar   
    36   19   37 1    
    37   20   21 ar   
    38   20   36 1    
    39   21   33 1    
    40   34   35 1    
    41   38   42 1    
    42   39   40 ar   
    43   39   44 ar   
    44   39   45 1    
    45   40   41 ar   
    46   40   46 1    
    47   41   42 ar   
    48   41   47 1    
    49   42   43 ar   
    50   43   44 ar   
    51   43   48 1    
    52   44   49 1    
@<TRIPOS>SUBSTRUCTURE
     1 UNK         1 GROUP             0       ****    0 ROOT    
@<TRIPOS>MOLECULE
62
43   46    1
SMALL
USER_CHARGES


@<TRIPOS>ATOM
      1 O1          3.8290  -49.9082    7.3567 O.co2     1 UNK         0.0000 
      2 C2          3.1153  -49.0416    6.8012 C.2       1 UNK         0.0000 
      3 O3          3.5513  -47.8977    6.5562 O.co2     1 UNK         0.0000 
      4 C4          1.7057  -49.3580    6.4403 C.2       1 UNK         0.0000 
      5 S5          1.2056  -50.5983    6.7955 S.3       1 UNK         0.0000 
      6 C6         -0.1076  -50.6487    6.3793 C.ar      1 UNK         0.0000 
      7 C7         -1.0211  -51.7084    6.5402 C.ar      1 UNK         0.0000 
      8 C8         -2.3348  -51.5531    6.0492 C.ar      1 UNK         0.0000 
      9 C9         -2.6993  -50.3586    5.3936 C.ar      1 UNK         0.0000 
     10 C10        -1.7635  -49.3099    5.2420 C.ar      1 UNK         0.0000 
     11 C11        -0.4423  -49.4338    5.7433 C.ar      1 UNK         0.0000 
     12 C12         0.7328  -48.6071    5.8015 C.2       1 UNK         0.0000 
     13 C13         0.8592  -47.2049    5.2675 C.3       1 UNK         0.0000 
     14 C14         0.9701  -46.1519    6.3924 C.3       1 UNK         0.0000 
     15 C15        -0.0852  -45.0395    6.3276 C.3       1 UNK         0.0000 
     16 O16        -1.4118  -45.4805    6.0441 O.3       1 UNK         0.0000 
     17 C17        -2.2386  -45.8040    7.0949 C.ar      1 UNK         0.0000 
     18 C18        -4.0387  -46.5572    9.1587 C.ar      1 UNK         0.0000 
     19 C19        -2.7241  -47.0517    9.1502 C.ar      1 UNK         0.0000 
     20 C20        -1.8288  -46.6752    8.1339 C.ar      1 UNK         0.0000 
     21 H21        -0.7066  -52.6190    7.0311 H         1 UNK         0.0000 
     22 H22        -3.0587  -52.3431    6.1650 H         1 UNK         0.0000 
     23 H23        -3.7046  -50.2579    5.0149 H         1 UNK         0.0000 
     24 Cl24       -2.2917  -47.8537    4.4555 Cl        1 UNK         0.0000 
     25 H25         0.0290  -46.9431    4.6125 H         1 UNK         0.0000 
     26 H26         1.7283  -47.1093    4.6111 H         1 UNK         0.0000 
     27 H27         1.9742  -45.7384    6.3689 H         1 UNK         0.0000 
     28 H28         0.8817  -46.6593    7.3374 H         1 UNK         0.0000 
     29 H29         0.1693  -44.3257    5.5311 H         1 UNK         0.0000 
     30 H30        -0.0960  -44.4595    7.2554 H         1 UNK         0.0000 
     31 H31        -0.8428  -47.0960    8.1432 H         1 UNK         0.0000 
     32 C32        -4.4644  -45.6869    8.1312 C.ar      1 UNK         0.0000 
     33 C33        -3.5686  -45.3157    7.0918 C.ar      1 UNK         0.0000 
     34 C34        -4.0196  -44.4491    6.0697 C.ar      1 UNK         0.0000 
     35 C35        -5.3473  -43.9766    6.0646 C.ar      1 UNK         0.0000 
     36 C36        -6.2357  -44.3575    7.0895 C.ar      1 UNK         0.0000 
     37 C37        -5.7910  -45.2055    8.1244 C.ar      1 UNK         0.0000 
     38 H38        -3.3486  -44.1169    5.2832 H         1 UNK         0.0000 
     39 H39        -5.6814  -43.3108    5.2771 H         1 UNK         0.0000 
     40 H40        -7.2478  -43.9904    7.0845 H         1 UNK         0.0000 
     41 H41        -6.4780  -45.4729    8.9067 H         1 UNK         0.0000 
     42 H42        -2.4006  -47.6725    9.9863 H         1 UNK         0.0000 
     43 H43        -4.7208  -46.8457    9.9562 H         1 UNK         0.0000 
@<TRIPOS>BOND
     1    1    2 2    
     2    2    3 1    
     3    2    4 1    
     4    4    5 1    
     5    4   12 2    
     6    5    6 1    
     7    6    7 ar   
     8    6   11 ar   
     9    7    8 ar   
    10    7   21 1    
    11    8    9 ar   
    12    8   22 1    
    13    9   10 ar   
    14    9   23 1    
    15   10   11 ar   
    16   10   24 1    
    17   11   12 1    
    18   12   13 1    
    19   13   25 1    
    20   13   26 1    
    21   13   14 1    
    22   14   15 1    
    23   14   27 1    
    24   14   28 1    
    25   15   16 1    
    26   15   29 1    
    27   15   30 1    
    28   16   17 1    
    29   17   20 ar   
    30   17   33 ar   
    31   18   19 ar   
    32   18   32 ar   
    33   18   43 1    
    34   19   20 ar   
    35   19   42 1    
    36   20   31 1    
    37   32   33 ar   
    38   32   37 ar   
    39   33   34 ar   
    40   34   35 ar   
    41   34   38 1    
    42   35   36 ar   
    43   35   39 1    
    44   36   37 ar   
    45   36   40 1    
    46   37   41 1    
@<TRIPOS>SUBSTRUCTURE
     1 UNK         1 GROUP             0       ****    0 ROOT    
@<TRIPOS>MOLECULE
61
43   45    1
SMALL
USER_CHARGES


@<TRIPOS>ATOM
      1 O1          3.8290  -49.9082    7.3567 O.co2     1 UNK         0.0000 
      2 C2          3.1153  -49.0416    6.8012 C.2       1 UNK         0.0000 
      3 O3          3.5513  -47.8977    6.5562 O.co2     1 UNK         0.0000 
      4 C4          1.7057  -49.3580    6.4403 C.2       1 UNK         0.0000 
      5 S5          1.2056  -50.5983    6.7955 S.3       1 UNK         0.0000 
      6 C6         -0.1076  -50.6487    6.3793 C.ar      1 UNK         0.0000 
      7 C7         -1.0211  -51.7084    6.5402 C.ar      1 UNK         0.0000 
      8 C8         -2.3348  -51.5531    6.0492 C.ar      1 UNK         0.0000 
      9 C9         -2.6993  -50.3586    5.3936 C.ar      1 UNK         0.0000 
     10 C10        -1.7635  -49.3099    5.2420 C.ar      1 UNK         0.0000 
     11 C11        -0.4423  -49.4338    5.7433 C.ar      1 UNK         0.0000 
     12 C12         0.7328  -48.6071    5.8015 C.2       1 UNK         0.0000 
     13 C13         0.8592  -47.2049    5.2675 C.3       1 UNK         0.0000 
     14 C14         0.9701  -46.1519    6.3924 C.3       1 UNK         0.0000 
     15 C15        -0.0852  -45.0395    6.3276 C.3       1 UNK         0.0000 
     16 O16        -1.4118  -45.4805    6.0441 O.3       1 UNK         0.0000 
     17 C17        -2.2386  -45.8040    7.0949 C.ar      1 UNK         0.0000 
     18 C18        -3.5686  -45.3157    7.0918 C.ar      1 UNK         0.0000 
     19 C19        -4.4644  -45.6869    8.1312 C.ar      1 UNK         0.0000 
     20 C20        -5.8681  -45.1581    8.1371 C.3       1 UNK         0.0000 
     21 C21        -4.0387  -46.5572    9.1587 C.ar      1 UNK         0.0000 
     22 Cl22       -5.1201  -46.9948   10.4290 Cl        1 UNK         0.0000 
     23 C23        -2.7241  -47.0517    9.1502 C.ar      1 UNK         0.0000 
     24 C24        -2.2701  -47.9759   10.2409 C.3       1 UNK         0.0000 
     25 C25        -1.8288  -46.6752    8.1339 C.ar      1 UNK         0.0000 
     26 H26        -0.7081  -52.6331    7.0236 H         1 UNK         0.0000 
     27 H27        -3.0706  -52.3331    6.1644 H         1 UNK         0.0000 
     28 H28        -3.7015  -50.2582    4.9967 H         1 UNK         0.0000 
     29 Cl29       -2.2917  -47.8537    4.4555 Cl        1 UNK         0.0000 
     30 H30         0.0114  -46.9848    4.6360 H         1 UNK         0.0000 
     31 H31         1.7132  -47.1244    4.5860 H         1 UNK         0.0000 
     32 H32         1.9632  -45.6935    6.3671 H         1 UNK         0.0000 
     33 H33         0.8843  -46.6315    7.3666 H         1 UNK         0.0000 
     34 H34         0.1790  -44.3606    5.5226 H         1 UNK         0.0000 
     35 H35        -0.0894  -44.4362    7.2270 H         1 UNK         0.0000 
     36 H36        -3.9097  -44.6442    6.3172 H         1 UNK         0.0000 
     37 H37        -6.4002  -45.5495    9.0042 H         1 UNK         0.0000 
     38 H38        -5.8460  -44.0694    8.1853 H         1 UNK         0.0000 
     39 H39        -6.3781  -45.4712    7.2261 H         1 UNK         0.0000 
     40 H40        -1.2301  -48.2549   10.0713 H         1 UNK         0.0000 
     41 H41        -2.3589  -47.4729   11.2038 H         1 UNK         0.0000 
     42 H42        -2.8913  -48.8716   10.2402 H         1 UNK         0.0000 
     43 H43        -0.8081  -47.0464    8.1369 H         1 UNK         0.0000 
@<TRIPOS>BOND
     1    1    2 2    
     2    2    3 1    
     3    2    4 1    
     4    4    5 1    
     5    4   12 2    
     6    5    6 1    
     7    6    7 ar   
     8    6   11 ar   
     9    7    8 ar   
    10    7   26 1    
    11    8    9 ar   
    12    8   27 1    
    13    9   10 ar   
    14    9   28 1    
    15   10   11 ar   
    16   10   29 1    
    17   11   12 1    
    18   12   13 1    
    19   13   30 1    
    20   13   31 1    
    21   13   14 1    
    22   14   15 1    
    23   14   32 1    
    24   14   33 1    
    25   15   16 1    
    26   15   34 1    
    27   15   35 1    
    28   16   17 1    
    29   17   18 ar   
    30   17   25 ar   
    31   18   19 ar   
    32   18   36 1    
    33   19   20 1    
    34   19   21 ar   
    35   20   37 1    
    36   20   38 1    
    37   20   39 1    
    38   21   22 1    
    39   21   23 ar   
    40   23   24 1    
    41   23   25 ar   
    42   24   40 1    
    43   24   41 1    
    44   24   42 1    
    45   25   43 1    
@<TRIPOS>SUBSTRUCTURE
     1 UNK         1 GROUP             0       ****    0 ROOT    
@<TRIPOS>MOLECULE
49
41   43    1
SMALL
USER_CHARGES


@<TRIPOS>ATOM
      1 O1          3.8290  -49.9082    7.3567 O.co2     1 UNK         0.0000 
      2 C2          3.1153  -49.0416    6.8012 C.2       1 UNK         0.0000 
      3 O3          3.5513  -47.8977    6.5562 O.co2     1 UNK         0.0000 
      4 C4          1.7057  -49.3580    6.4403 C.ar      1 UNK         0.0000 
      5 C5         -0.1076  -50.6487    6.3793 C.ar      1 UNK         0.0000 
      6 C6         -1.0211  -51.7084    6.5402 C.ar      1 UNK         0.0000 
      7 C7         -2.3348  -51.5531    6.0492 C.ar      1 UNK         0.0000 
      8 C8         -2.6993  -50.3586    5.3936 C.ar      1 UNK         0.0000 
      9 C9         -1.7635  -49.3099    5.2420 C.ar      1 UNK         0.0000 
     10 C10        -0.4423  -49.4338    5.7433 C.ar      1 UNK         0.0000 
     11 C11         0.7328  -48.6071    5.8015 C.ar      1 UNK         0.0000 
     12 C12         0.8592  -47.2049    5.2675 C.3       1 UNK         0.0000 
     13 C13         0.9701  -46.1519    6.3924 C.3       1 UNK         0.0000 
     14 C14        -0.0852  -45.0395    6.3276 C.3       1 UNK         0.0000 
     15 O15        -1.4118  -45.4805    6.0441 O.3       1 UNK         0.0000 
     16 C16        -2.2386  -45.8040    7.0949 C.ar      1 UNK         0.0000 
     17 C17        -3.5686  -45.3157    7.0918 C.ar      1 UNK         0.0000 
     18 C18        -4.4644  -45.6869    8.1312 C.ar      1 UNK         0.0000 
     19 C19        -5.8681  -45.1581    8.1371 C.3       1 UNK         0.0000 
     20 C20        -4.0387  -46.5572    9.1587 C.ar      1 UNK         0.0000 
     21 Cl21       -5.1201  -46.9948   10.4290 Cl        1 UNK         0.0000 
     22 C22        -2.7241  -47.0517    9.1502 C.ar      1 UNK         0.0000 
     23 C23        -1.8288  -46.6752    8.1339 C.ar      1 UNK         0.0000 
     24 H24        -0.7215  -52.6046    7.0573 H         1 UNK         0.0000 
     25 H25        -3.0472  -52.3512    6.1776 H         1 UNK         0.0000 
     26 H26        -3.7066  -50.2501    5.0223 H         1 UNK         0.0000 
     27 Cl27       -2.2917  -47.8537    4.4555 Cl        1 UNK         0.0000 
     28 H28        -0.0047  -46.9606    4.6492 H         1 UNK         0.0000 
     29 H29         1.7124  -47.1173    4.6008 H         1 UNK         0.0000 
     30 H30         1.9700  -45.7210    6.3881 H         1 UNK         0.0000 
     31 H31         0.8588  -46.6434    7.3581 H         1 UNK         0.0000 
     32 H32         0.1791  -44.3487    5.5269 H         1 UNK         0.0000 
     33 H33        -0.0930  -44.4474    7.2424 H         1 UNK         0.0000 
     34 H34        -3.9014  -44.6516    6.3082 H         1 UNK         0.0000 
     35 H35        -6.4002  -45.5495    9.0042 H         1 UNK         0.0000 
     36 H36        -5.8460  -44.0694    8.1853 H         1 UNK         0.0000 
     37 H37        -6.3781  -45.4712    7.2261 H         1 UNK         0.0000 
     38 H38        -0.8176  -47.0564    8.1506 H         1 UNK         0.0000 
     39 H39        -2.3941  -47.7124    9.9395 H         1 UNK         0.0000 
     40 N40         1.2056  -50.5983    6.7955 N.pl3     1 UNK         0.0000 
     41 H41         1.7850  -51.2763    7.2888 H         1 UNK         0.0000 
@<TRIPOS>BOND
     1    1    2 2    
     2    2    3 1    
     3    2    4 1    
     4    4   11 ar   
     5    4   40 ar   
     6    5    6 ar   
     7    5   10 ar   
     8    5   40 ar   
     9    6    7 ar   
    10    6   24 1    
    11    7    8 ar   
    12    7   25 1    
    13    8    9 ar   
    14    8   26 1    
    15    9   10 ar   
    16    9   27 1    
    17   10   11 ar   
    18   11   12 1    
    19   12   28 1    
    20   12   29 1    
    21   12   13 1    
    22   13   14 1    
    23   13   30 1    
    24   13   31 1    
    25   14   15 1    
    26   14   32 1    
    27   14   33 1    
    28   15   16 1    
    29   16   17 ar   
    30   16   23 ar   
    31   17   18 ar   
    32   17   34 1    
    33   18   19 1    
    34   18   20 ar   
    35   19   35 1    
    36   19   36 1    
    37   19   37 1    
    38   20   21 1    
    39   20   22 ar   
    40   22   23 ar   
    41   22   39 1    
    42   23   38 1    
    43   40   41 1    
@<TRIPOS>SUBSTRUCTURE
     1 UNK         1 GROUP             0       ****    0 ROOT    
@<TRIPOS>MOLECULE
64
43   46    1
SMALL
USER_CHARGES


@<TRIPOS>ATOM
      1 O1          3.8290  -49.9082    7.3567 O.co2     1 UNK         0.0000 
      2 C2          3.1153  -49.0416    6.8012 C.2       1 UNK         0.0000 
      3 O3          3.5513  -47.8977    6.5562 O.co2     1 UNK         0.0000 
      4 C4          1.7057  -49.3580    6.4403 C.2       1 UNK         0.0000 
      5 S5          1.2056  -50.5983    6.7955 S.3       1 UNK         0.0000 
      6 C6         -0.1076  -50.6487    6.3793 C.ar      1 UNK         0.0000 
      7 C7         -1.0211  -51.7084    6.5402 C.ar      1 UNK         0.0000 
      8 C8         -2.3348  -51.5531    6.0492 C.ar      1 UNK         0.0000 
      9 C9         -2.6993  -50.3586    5.3936 C.ar      1 UNK         0.0000 
     10 C10        -1.7635  -49.3099    5.2420 C.ar      1 UNK         0.0000 
     11 C11        -0.4423  -49.4338    5.7433 C.ar      1 UNK         0.0000 
     12 C12         0.7328  -48.6071    5.8015 C.2       1 UNK         0.0000 
     13 C13         0.8592  -47.2049    5.2675 C.3       1 UNK         0.0000 
     14 C14         0.9701  -46.1519    6.3924 C.3       1 UNK         0.0000 
     15 C15        -0.0852  -45.0395    6.3276 C.3       1 UNK         0.0000 
     16 O16        -1.4118  -45.4805    6.0441 O.3       1 UNK         0.0000 
     17 C17        -2.2386  -45.8040    7.0949 C.ar      1 UNK         0.0000 
     18 C18        -4.0387  -46.5572    9.1587 C.ar      1 UNK         0.0000 
     19 C19        -2.7241  -47.0517    9.1502 C.ar      1 UNK         0.0000 
     20 C20        -1.8288  -46.6752    8.1339 C.ar      1 UNK         0.0000 
     21 H21        -0.7062  -52.6096    7.0445 H         1 UNK         0.0000 
     22 Cl22       -3.4950  -52.7922    6.2898 Cl        1 UNK         0.0000 
     23 H23        -3.7017  -50.2404    5.0085 H         1 UNK         0.0000 
     24 H24        -2.0828  -48.4027    4.7593 H         1 UNK         0.0000 
     25 H25        -0.0023  -46.9688    4.6449 H         1 UNK         0.0000 
     26 H26         1.7122  -47.1320    4.5905 H         1 UNK         0.0000 
     27 H27         1.9794  -45.7403    6.4142 H         1 UNK         0.0000 
     28 H28         0.8394  -46.6808    7.3376 H         1 UNK         0.0000 
     29 H29         0.1883  -44.3381    5.5394 H         1 UNK         0.0000 
     30 H30        -0.0634  -44.4973    7.2688 H         1 UNK         0.0000 
     31 H31        -0.8481  -47.1034    8.1703 H         1 UNK         0.0000 
     32 C32        -4.4644  -45.6869    8.1312 C.ar      1 UNK         0.0000 
     33 C33        -3.5686  -45.3157    7.0918 C.ar      1 UNK         0.0000 
     34 C34        -4.0196  -44.4491    6.0697 C.ar      1 UNK         0.0000 
     35 C35        -5.3473  -43.9766    6.0646 C.ar      1 UNK         0.0000 
     36 C36        -6.2357  -44.3575    7.0895 C.ar      1 UNK         0.0000 
     37 C37        -5.7910  -45.2055    8.1244 C.ar      1 UNK         0.0000 
     38 H38        -3.3556  -44.1383    5.2804 H         1 UNK         0.0000 
     39 H39        -5.6832  -43.3234    5.2766 H         1 UNK         0.0000 
     40 H40        -7.2514  -44.0034    7.0823 H         1 UNK         0.0000 
     41 H41        -6.4816  -45.4810    8.9083 H         1 UNK         0.0000 
     42 H42        -2.3980  -47.7403    9.9190 H         1 UNK         0.0000 
     43 H43        -4.7162  -46.8617    9.9464 H         1 UNK         0.0000 
@<TRIPOS>BOND
     1    1    2 2    
     2    2    3 1    
     3    2    4 1    
     4    4    5 1    
     5    4   12 2    
     6    5    6 1    
     7    6    7 ar   
     8    6   11 ar   
     9    7    8 ar   
    10    7   21 1    
    11    8    9 ar   
    12    8   22 1    
    13    9   10 ar   
    14    9   23 1    
    15   10   11 ar   
    16   10   24 1    
    17   11   12 1    
    18   12   13 1    
    19   13   25 1    
    20   13   26 1    
    21   13   14 1    
    22   14   15 1    
    23   14   27 1    
    24   14   28 1    
    25   15   16 1    
    26   15   29 1    
    27   15   30 1    
    28   16   17 1    
    29   17   20 ar   
    30   17   33 ar   
    31   18   19 ar   
    32   18   32 ar   
    33   18   43 1    
    34   19   20 ar   
    35   19   42 1    
    36   20   31 1    
    37   32   33 ar   
    38   32   37 ar   
    39   33   34 ar   
    40   34   35 ar   
    41   34   38 1    
    42   35   36 ar   
    43   35   39 1    
    44   36   37 ar   
    45   36   40 1    
    46   37   41 1    
@<TRIPOS>SUBSTRUCTURE
     1 UNK         1 GROUP             0       ****    0 ROOT    
@<TRIPOS>MOLECULE
41
49   52    1
SMALL
USER_CHARGES


@<TRIPOS>ATOM
      1 O1          3.8290  -49.9082    7.3567 O.co2     1 UNK         0.0000 
      2 C2          3.1153  -49.0416    6.8012 C.2       1 UNK         0.0000 
      3 O3          3.5513  -47.8977    6.5562 O.co2     1 UNK         0.0000 
      4 C4          1.7057  -49.3580    6.4403 C.ar      1 UNK         0.0000 
      5 C5         -0.1076  -50.6487    6.3793 C.ar      1 UNK         0.0000 
      6 C6         -1.0211  -51.7084    6.5402 C.ar      1 UNK         0.0000 
      7 C7         -2.3348  -51.5531    6.0492 C.ar      1 UNK         0.0000 
      8 C8         -2.6993  -50.3586    5.3936 C.ar      1 UNK         0.0000 
      9 C9         -1.7635  -49.3099    5.2420 C.ar      1 UNK         0.0000 
     10 C10        -0.4423  -49.4338    5.7433 C.ar      1 UNK         0.0000 
     11 C11         0.7328  -48.6071    5.8015 C.ar      1 UNK         0.0000 
     12 C12         0.8592  -47.2049    5.2675 C.3       1 UNK         0.0000 
     13 C13         0.9701  -46.1519    6.3924 C.3       1 UNK         0.0000 
     14 C14        -0.0852  -45.0395    6.3276 C.3       1 UNK         0.0000 
     15 O15        -1.4118  -45.4805    6.0441 O.3       1 UNK         0.0000 
     16 C16        -2.2386  -45.8040    7.0949 C.ar      1 UNK         0.0000 
     17 C17        -1.8288  -46.6752    8.1339 C.ar      1 UNK         0.0000 
     18 C18        -2.7241  -47.0517    9.1502 C.ar      1 UNK         0.0000 
     19 C19        -4.0387  -46.5572    9.1587 C.ar      1 UNK         0.0000 
     20 C20        -4.4644  -45.6869    8.1312 C.ar      1 UNK         0.0000 
     21 C21        -3.5686  -45.3157    7.0918 C.ar      1 UNK         0.0000 
     22 H22        -0.7241  -52.6195    7.0305 H         1 UNK         0.0000 
     23 H23        -3.0640  -52.3423    6.1750 H         1 UNK         0.0000 
     24 H24        -3.6990  -50.2418    4.9972 H         1 UNK         0.0000 
     25 H25        -2.0721  -48.3944    4.7593 H         1 UNK         0.0000 
     26 H26         0.0155  -46.9804    4.6123 H         1 UNK         0.0000 
     27 H27         1.7283  -47.1327    4.6105 H         1 UNK         0.0000 
     28 H28         1.9813  -45.7348    6.4162 H         1 UNK         0.0000 
     29 H29         0.8715  -46.6762    7.3494 H         1 UNK         0.0000 
     30 H30         0.1736  -44.3982    5.4784 H         1 UNK         0.0000 
     31 H31        -0.0907  -44.3777    7.1961 H         1 UNK         0.0000 
     32 H32        -0.8107  -47.0375    8.1602 H         1 UNK         0.0000 
     33 H33        -3.8968  -44.6255    6.3315 H         1 UNK         0.0000 
     34 N34         1.2056  -50.5983    6.7955 N.pl3     1 UNK         0.0000 
     35 H35         1.7934  -51.2634    7.2803 H         1 UNK         0.0000 
     36 H36        -5.4586  -45.2704    8.1477 H         1 UNK         0.0000 
     37 H37        -2.3920  -47.7037    9.9455 H         1 UNK         0.0000 
     38 O38        -4.9058  -46.9104   10.1725 O.3       1 UNK         0.0000 
     39 C39        -8.7149  -45.2645    9.8809 C.ar      1 UNK         0.0000 
     40 C40        -8.1750  -45.5502   11.1293 C.ar      1 UNK         0.0000 
     41 C41        -6.9023  -46.1001   11.2267 C.ar      1 UNK         0.0000 
     42 C42        -6.1695  -46.3644   10.0757 C.ar      1 UNK         0.0000 
     43 C43        -6.7094  -46.0786    8.8273 C.ar      1 UNK         0.0000 
     44 C44        -7.9820  -45.5287    8.7299 C.ar      1 UNK         0.0000 
     45 H45        -9.7057  -44.8364    9.8050 H         1 UNK         0.0000 
     46 H46        -8.7455  -45.3445   12.0254 H         1 UNK         0.0000 
     47 H47        -6.4820  -46.3226   12.1987 H         1 UNK         0.0000 
     48 H48        -6.1388  -46.2844    7.9312 H         1 UNK         0.0000 
     49 H49        -8.4023  -45.3063    7.7579 H         1 UNK         0.0000 
@<TRIPOS>BOND
     1    1    2 2    
     2    2    3 1    
     3    2    4 1    
     4    4   11 ar   
     5    4   34 ar   
     6    5    6 ar   
     7    5   10 ar   
     8    5   34 ar   
     9    6    7 ar   
    10    6   22 1    
    11    7    8 ar   
    12    7   23 1    
    13    8    9 ar   
    14    8   24 1    
    15    9   10 ar   
    16    9   25 1    
    17   10   11 ar   
    18   11   12 1    
    19   12   26 1    
    20   12   27 1    
    21   12   13 1    
    22   13   14 1    
    23   13   28 1    
    24   13   29 1    
    25   14   15 1    
    26   14   30 1    
    27   14   31 1    
    28   15   16 1    
    29   16   17 ar   
    30   16   21 ar   
    31   17   18 ar   
    32   17   32 1    
    33   18   19 ar   
    34   18   37 1    
    35   19   20 ar   
    36   19   38 1    
    37   20   21 ar   
    38   20   36 1    
    39   21   33 1    
    40   34   35 1    
    41   38   42 1    
    42   39   40 ar   
    43   39   44 ar   
    44   39   45 1    
    45   40   41 ar   
    46   40   46 1    
    47   41   42 ar   
    48   41   47 1    
    49   42   43 ar   
    50   43   44 ar   
    51   43   48 1    
    52   44   49 1    
@<TRIPOS>SUBSTRUCTURE
     1 UNK         1 GROUP             0       ****    0 ROOT    
@<TRIPOS>MOLECULE
65
43   45    1
SMALL
USER_CHARGES


@<TRIPOS>ATOM
      1 O1          3.8290  -49.9082    7.3567 O.co2     1 UNK         0.0000 
      2 C2          3.1153  -49.0416    6.8012 C.2       1 UNK         0.0000 
      3 O3          3.5513  -47.8977    6.5562 O.co2     1 UNK         0.0000 
      4 C4          1.7057  -49.3580    6.4403 C.2       1 UNK         0.0000 
      5 S5          1.2056  -50.5983    6.7955 S.3       1 UNK         0.0000 
      6 C6         -0.1076  -50.6487    6.3793 C.ar      1 UNK         0.0000 
      7 C7         -1.0211  -51.7084    6.5402 C.ar      1 UNK         0.0000 
      8 C8         -2.3348  -51.5531    6.0492 C.ar      1 UNK         0.0000 
      9 C9         -2.6993  -50.3586    5.3936 C.ar      1 UNK         0.0000 
     10 C10        -1.7635  -49.3099    5.2420 C.ar      1 UNK         0.0000 
     11 C11        -0.4423  -49.4338    5.7433 C.ar      1 UNK         0.0000 
     12 C12         0.7328  -48.6071    5.8015 C.2       1 UNK         0.0000 
     13 C13         0.8592  -47.2049    5.2675 C.3       1 UNK         0.0000 
     14 C14         0.9701  -46.1519    6.3924 C.3       1 UNK         0.0000 
     15 C15        -0.0852  -45.0395    6.3276 C.3       1 UNK         0.0000 
     16 O16        -1.4118  -45.4805    6.0441 O.3       1 UNK         0.0000 
     17 C17        -2.2386  -45.8040    7.0949 C.ar      1 UNK         0.0000 
     18 C18        -3.5686  -45.3157    7.0918 C.ar      1 UNK         0.0000 
     19 C19        -4.4644  -45.6869    8.1312 C.ar      1 UNK         0.0000 
     20 C20        -5.8681  -45.1581    8.1371 C.3       1 UNK         0.0000 
     21 C21        -4.0387  -46.5572    9.1587 C.ar      1 UNK         0.0000 
     22 Cl22       -5.1201  -46.9948   10.4290 Cl        1 UNK         0.0000 
     23 C23        -2.7241  -47.0517    9.1502 C.ar      1 UNK         0.0000 
     24 C24        -2.2701  -47.9759   10.2409 C.3       1 UNK         0.0000 
     25 C25        -1.8288  -46.6752    8.1339 C.ar      1 UNK         0.0000 
     26 Cl26       -0.5440  -53.1713    7.3271 Cl        1 UNK         0.0000 
     27 H27        -3.0628  -52.3403    6.1822 H         1 UNK         0.0000 
     28 H28        -3.6986  -50.2325    5.0034 H         1 UNK         0.0000 
     29 H29        -2.0819  -48.4108    4.7442 H         1 UNK         0.0000 
     30 H30        -0.0018  -46.9627    4.6479 H         1 UNK         0.0000 
     31 H31         1.7183  -47.1267    4.5935 H         1 UNK         0.0000 
     32 H32         1.9648  -45.7009    6.3810 H         1 UNK         0.0000 
     33 H33         0.8664  -46.6286    7.3617 H         1 UNK         0.0000 
     34 H34         0.1649  -44.3308    5.5415 H         1 UNK         0.0000 
     35 H35        -0.0948  -44.5008    7.2743 H         1 UNK         0.0000 
     36 H36        -3.9155  -44.6448    6.3180 H         1 UNK         0.0000 
     37 H37        -6.4002  -45.5495    9.0042 H         1 UNK         0.0000 
     38 H38        -5.8460  -44.0694    8.1853 H         1 UNK         0.0000 
     39 H39        -6.3781  -45.4712    7.2261 H         1 UNK         0.0000 
     40 H40        -1.2301  -48.2549   10.0713 H         1 UNK         0.0000 
     41 H41        -2.3589  -47.4729   11.2038 H         1 UNK         0.0000 
     42 H42        -2.8913  -48.8716   10.2402 H         1 UNK         0.0000 
     43 H43        -0.8105  -47.0439    8.1449 H         1 UNK         0.0000 
@<TRIPOS>BOND
     1    1    2 2    
     2    2    3 1    
     3    2    4 1    
     4    4    5 1    
     5    4   12 2    
     6    5    6 1    
     7    6    7 ar   
     8    6   11 ar   
     9    7    8 ar   
    10    7   26 1    
    11    8    9 ar   
    12    8   27 1    
    13    9   10 ar   
    14    9   28 1    
    15   10   11 ar   
    16   10   29 1    
    17   11   12 1    
    18   12   13 1    
    19   13   30 1    
    20   13   31 1    
    21   13   14 1    
    22   14   15 1    
    23   14   32 1    
    24   14   33 1    
    25   15   16 1    
    26   15   34 1    
    27   15   35 1    
    28   16   17 1    
    29   17   18 ar   
    30   17   25 ar   
    31   18   19 ar   
    32   18   36 1    
    33   19   20 1    
    34   19   21 ar   
    35   20   37 1    
    36   20   38 1    
    37   20   39 1    
    38   21   22 1    
    39   21   23 ar   
    40   23   24 1    
    41   23   25 ar   
    42   24   40 1    
    43   24   41 1    
    44   24   42 1    
    45   25   43 1    
@<TRIPOS>SUBSTRUCTURE
     1 UNK         1 GROUP             0       ****    0 ROOT    
@<TRIPOS>MOLECULE
58
47   49    1
SMALL
USER_CHARGES


@<TRIPOS>ATOM
      1 O1          3.8290  -49.9082    7.3567 O.co2     1 UNK         0.0000 
      2 C2          3.1153  -49.0416    6.8012 C.2       1 UNK         0.0000 
      3 O3          3.5513  -47.8977    6.5562 O.co2     1 UNK         0.0000 
      4 C4          1.7057  -49.3580    6.4403 C.ar      1 UNK         0.0000 
      5 C5         -0.1076  -50.6487    6.3793 C.ar      1 UNK         0.0000 
      6 C6         -1.0211  -51.7084    6.5402 C.ar      1 UNK         0.0000 
      7 C7         -2.3348  -51.5531    6.0492 C.ar      1 UNK         0.0000 
      8 C8         -2.6993  -50.3586    5.3936 C.ar      1 UNK         0.0000 
      9 C9         -1.7635  -49.3099    5.2420 C.ar      1 UNK         0.0000 
     10 C10        -0.4423  -49.4338    5.7433 C.ar      1 UNK         0.0000 
     11 C11         0.7328  -48.6071    5.8015 C.ar      1 UNK         0.0000 
     12 C12         0.8592  -47.2049    5.2675 C.3       1 UNK         0.0000 
     13 C13         0.9701  -46.1519    6.3924 C.3       1 UNK         0.0000 
     14 C14        -0.0852  -45.0395    6.3276 C.3       1 UNK         0.0000 
     15 O15        -1.4118  -45.4805    6.0441 O.3       1 UNK         0.0000 
     16 C16        -2.2386  -45.8040    7.0949 C.ar      1 UNK         0.0000 
     17 C17        -3.5686  -45.3157    7.0918 C.ar      1 UNK         0.0000 
     18 C18        -4.4644  -45.6869    8.1312 C.ar      1 UNK         0.0000 
     19 C19        -5.8681  -45.1581    8.1371 C.3       1 UNK         0.0000 
     20 C20        -4.0387  -46.5572    9.1587 C.ar      1 UNK         0.0000 
     21 Cl21       -5.1201  -46.9948   10.4290 Cl        1 UNK         0.0000 
     22 C22        -2.7241  -47.0517    9.1502 C.ar      1 UNK         0.0000 
     23 C23        -2.2701  -47.9759   10.2409 C.3       1 UNK         0.0000 
     24 C24        -1.8288  -46.6752    8.1339 C.ar      1 UNK         0.0000 
     25 H25        -0.7035  -52.5839    7.0533 H         1 UNK         0.0000 
     26 Cl26       -3.4950  -52.7922    6.2898 Cl        1 UNK         0.0000 
     27 H27        -3.7033  -50.2368    5.0156 H         1 UNK         0.0000 
     28 H28        -2.0568  -48.3895    4.7589 H         1 UNK         0.0000 
     29 H29         0.0018  -46.9780    4.6313 H         1 UNK         0.0000 
     30 H30         1.7266  -47.1336    4.6046 H         1 UNK         0.0000 
     31 H31         1.9648  -45.7088    6.3582 H         1 UNK         0.0000 
     32 H32         0.9038  -46.6489    7.3610 H         1 UNK         0.0000 
     33 H33         0.1864  -44.3308    5.5450 H         1 UNK         0.0000 
     34 H34        -0.1153  -44.4853    7.2665 H         1 UNK         0.0000 
     35 H35        -3.9053  -44.6541    6.3115 H         1 UNK         0.0000 
     36 H36        -6.4002  -45.5495    9.0042 H         1 UNK         0.0000 
     37 H37        -5.8460  -44.0694    8.1853 H         1 UNK         0.0000 
     38 H38        -6.3781  -45.4712    7.2261 H         1 UNK         0.0000 
     39 H39        -1.2301  -48.2549   10.0713 H         1 UNK         0.0000 
     40 H40        -2.3589  -47.4729   11.2038 H         1 UNK         0.0000 
     41 H41        -2.8913  -48.8716   10.2402 H         1 UNK         0.0000 
     42 H42        -0.8151  -47.0425    8.1384 H         1 UNK         0.0000 
     43 C43         1.9593  -51.6414    7.4849 C.3       1 UNK         0.0000 
     44 H44         1.3200  -52.5109    7.6379 H         1 UNK         0.0000 
     45 H45         2.8213  -51.9259    6.8815 H         1 UNK         0.0000 
     46 H46         2.2994  -51.2663    8.4502 H         1 UNK         0.0000 
     47 N47         1.2056  -50.5983    6.7955 N.pl3     1 UNK         0.0000 
@<TRIPOS>BOND
     1    1    2 2    
     2    2    3 1    
     3    2    4 1    
     4    4   11 ar   
     5    4   47 ar   
     6    5    6 ar   
     7    5   10 ar   
     8    5   47 ar   
     9    6    7 ar   
    10    6   25 1    
    11    7    8 ar   
    12    7   26 1    
    13    8    9 ar   
    14    8   27 1    
    15    9   10 ar   
    16    9   28 1    
    17   10   11 ar   
    18   11   12 1    
    19   12   29 1    
    20   12   30 1    
    21   12   13 1    
    22   13   14 1    
    23   13   31 1    
    24   13   32 1    
    25   14   15 1    
    26   14   33 1    
    27   14   34 1    
    28   15   16 1    
    29   16   17 ar   
    30   16   24 ar   
    31   17   18 ar   
    32   17   35 1    
    33   18   19 1    
    34   18   20 ar   
    35   19   36 1    
    36   19   37 1    
    37   19   38 1    
    38   20   21 1    
    39   20   22 ar   
    40   22   23 1    
    41   22   24 ar   
    42   23   39 1    
    43   23   40 1    
    44   23   41 1    
    45   24   42 1    
    46   43   44 1    
    47   43   45 1    
    48   43   46 1    
    49   43   47 1    
@<TRIPOS>SUBSTRUCTURE
     1 UNK         1 GROUP             0       ****    0 ROOT    
@<TRIPOS>MOLECULE
63
43   45    1
SMALL
USER_CHARGES


@<TRIPOS>ATOM
      1 O1          3.8290  -49.9082    7.3567 O.co2     1 UNK         0.0000 
      2 C2          3.1153  -49.0416    6.8012 C.2       1 UNK         0.0000 
      3 O3          3.5513  -47.8977    6.5562 O.co2     1 UNK         0.0000 
      4 C4          1.7057  -49.3580    6.4403 C.2       1 UNK         0.0000 
      5 S5          1.2056  -50.5983    6.7955 S.3       1 UNK         0.0000 
      6 C6         -0.1076  -50.6487    6.3793 C.ar      1 UNK         0.0000 
      7 C7         -1.0211  -51.7084    6.5402 C.ar      1 UNK         0.0000 
      8 C8         -2.3348  -51.5531    6.0492 C.ar      1 UNK         0.0000 
      9 C9         -2.6993  -50.3586    5.3936 C.ar      1 UNK         0.0000 
     10 C10        -1.7635  -49.3099    5.2420 C.ar      1 UNK         0.0000 
     11 C11        -0.4423  -49.4338    5.7433 C.ar      1 UNK         0.0000 
     12 C12         0.7328  -48.6071    5.8015 C.2       1 UNK         0.0000 
     13 C13         0.8592  -47.2049    5.2675 C.3       1 UNK         0.0000 
     14 C14         0.9701  -46.1519    6.3924 C.3       1 UNK         0.0000 
     15 C15        -0.0852  -45.0395    6.3276 C.3       1 UNK         0.0000 
     16 O16        -1.4118  -45.4805    6.0441 O.3       1 UNK         0.0000 
     17 C17        -2.2386  -45.8040    7.0949 C.ar      1 UNK         0.0000 
     18 C18        -3.5686  -45.3157    7.0918 C.ar      1 UNK         0.0000 
     19 C19        -4.4644  -45.6869    8.1312 C.ar      1 UNK         0.0000 
     20 C20        -5.8681  -45.1581    8.1371 C.3       1 UNK         0.0000 
     21 C21        -4.0387  -46.5572    9.1587 C.ar      1 UNK         0.0000 
     22 Cl22       -5.1201  -46.9948   10.4290 Cl        1 UNK         0.0000 
     23 C23        -2.7241  -47.0517    9.1502 C.ar      1 UNK         0.0000 
     24 C24        -2.2701  -47.9759   10.2409 C.3       1 UNK         0.0000 
     25 C25        -1.8288  -46.6752    8.1339 C.ar      1 UNK         0.0000 
     26 H26        -0.7282  -52.6065    7.0737 H         1 UNK         0.0000 
     27 Cl27       -3.4950  -52.7922    6.2898 Cl        1 UNK         0.0000 
     28 H28        -3.7097  -50.2345    5.0338 H         1 UNK         0.0000 
     29 H29        -2.0917  -48.3961    4.7815 H         1 UNK         0.0000 
     30 H30         0.0028  -46.9759    4.6305 H         1 UNK         0.0000 
     31 H31         1.7155  -47.1283    4.5949 H         1 UNK         0.0000 
     32 H32         1.9694  -45.7225    6.3925 H         1 UNK         0.0000 
     33 H33         0.8656  -46.6370    7.3611 H         1 UNK         0.0000 
     34 H34         0.1619  -44.3289    5.5360 H         1 UNK         0.0000 
     35 H35        -0.0716  -44.4896    7.2707 H         1 UNK         0.0000 
     36 H36        -3.9207  -44.6337    6.3293 H         1 UNK         0.0000 
     37 H37        -6.4002  -45.5495    9.0042 H         1 UNK         0.0000 
     38 H38        -5.8460  -44.0694    8.1853 H         1 UNK         0.0000 
     39 H39        -6.3781  -45.4712    7.2261 H         1 UNK         0.0000 
     40 H40        -1.2301  -48.2549   10.0713 H         1 UNK         0.0000 
     41 H41        -2.3589  -47.4729   11.2038 H         1 UNK         0.0000 
     42 H42        -2.8913  -48.8716   10.2402 H         1 UNK         0.0000 
     43 H43        -0.8121  -47.0511    8.1349 H         1 UNK         0.0000 
@<TRIPOS>BOND
     1    1    2 2    
     2    2    3 1    
     3    2    4 1    
     4    4    5 1    
     5    4   12 2    
     6    5    6 1    
     7    6    7 ar   
     8    6   11 ar   
     9    7    8 ar   
    10    7   26 1    
    11    8    9 ar   
    12    8   27 1    
    13    9   10 ar   
    14    9   28 1    
    15   10   11 ar   
    16   10   29 1    
    17   11   12 1    
    18   12   13 1    
    19   13   30 1    
    20   13   31 1    
    21   13   14 1    
    22   14   15 1    
    23   14   32 1    
    24   14   33 1    
    25   15   16 1    
    26   15   34 1    
    27   15   35 1    
    28   16   17 1    
    29   17   18 ar   
    30   17   25 ar   
    31   18   19 ar   
    32   18   36 1    
    33   19   20 1    
    34   19   21 ar   
    35   20   37 1    
    36   20   38 1    
    37   20   39 1    
    38   21   22 1    
    39   21   23 ar   
    40   23   24 1    
    41   23   25 ar   
    42   24   40 1    
    43   24   41 1    
    44   24   42 1    
    45   25   43 1    
@<TRIPOS>SUBSTRUCTURE
     1 UNK         1 GROUP             0       ****    0 ROOT    
@<TRIPOS>MOLECULE
27
38   40    1
SMALL
USER_CHARGES


@<TRIPOS>ATOM
      1 O1          3.8290  -49.9082    7.3567 O.co2     1 UNK         0.0000 
      2 C2          3.1153  -49.0416    6.8012 C.2       1 UNK         0.0000 
      3 O3          3.5513  -47.8977    6.5562 O.co2     1 UNK         0.0000 
      4 C4          1.7057  -49.3580    6.4403 C.ar      1 UNK         0.0000 
      5 C5         -0.1076  -50.6487    6.3793 C.ar      1 UNK         0.0000 
      6 C6         -1.0211  -51.7084    6.5402 C.ar      1 UNK         0.0000 
      7 C7         -2.3348  -51.5531    6.0492 C.ar      1 UNK         0.0000 
      8 C8         -2.6993  -50.3586    5.3936 C.ar      1 UNK         0.0000 
      9 C9         -1.7635  -49.3099    5.2420 C.ar      1 UNK         0.0000 
     10 C10        -0.4423  -49.4338    5.7433 C.ar      1 UNK         0.0000 
     11 C11         0.7328  -48.6071    5.8015 C.ar      1 UNK         0.0000 
     12 C12         0.8592  -47.2049    5.2675 C.3       1 UNK         0.0000 
     13 C13         0.9701  -46.1519    6.3924 C.3       1 UNK         0.0000 
     14 C14        -0.0852  -45.0395    6.3276 C.3       1 UNK         0.0000 
     15 O15        -1.4118  -45.4805    6.0441 O.3       1 UNK         0.0000 
     16 C16        -2.2386  -45.8040    7.0949 C.ar      1 UNK         0.0000 
     17 C17        -1.8288  -46.6752    8.1339 C.ar      1 UNK         0.0000 
     18 C18        -2.7241  -47.0517    9.1502 C.ar      1 UNK         0.0000 
     19 C19        -4.0387  -46.5572    9.1587 C.ar      1 UNK         0.0000 
     20 C20        -4.4644  -45.6869    8.1312 C.ar      1 UNK         0.0000 
     21 C21        -3.5686  -45.3157    7.0918 C.ar      1 UNK         0.0000 
     22 H22        -0.6969  -52.6241    7.0159 H         1 UNK         0.0000 
     23 H23        -3.0522  -52.3438    6.1870 H         1 UNK         0.0000 
     24 H24        -3.7018  -50.2527    5.0060 H         1 UNK         0.0000 
     25 H25        -2.0585  -48.3984    4.7332 H         1 UNK         0.0000 
     26 H26         0.0133  -46.9707    4.6210 H         1 UNK         0.0000 
     27 H27         1.7346  -47.1330    4.6248 H         1 UNK         0.0000 
     28 H28         1.9641  -45.7074    6.3802 H         1 UNK         0.0000 
     29 H29         0.8856  -46.6354    7.3637 H         1 UNK         0.0000 
     30 H30         0.1756  -44.3366    5.5346 H         1 UNK         0.0000 
     31 H31        -0.0995  -44.4933    7.2732 H         1 UNK         0.0000 
     32 H32        -0.8283  -47.0786    8.1795 H         1 UNK         0.0000 
     33 H33        -3.8915  -44.6558    6.2993 H         1 UNK         0.0000 
     34 N34         1.2056  -50.5983    6.7955 N.pl3     1 UNK         0.0000 
     35 H35         1.7995  -51.2921    7.2488 H         1 UNK         0.0000 
     36 H36        -5.4736  -45.3020    8.1292 H         1 UNK         0.0000 
     37 H37        -4.7198  -46.8424    9.9493 H         1 UNK         0.0000 
     38 H38        -2.4076  -47.7301    9.9266 H         1 UNK         0.0000 
@<TRIPOS>BOND
     1    1    2 2    
     2    2    3 1    
     3    2    4 1    
     4    4   11 ar   
     5    4   34 ar   
     6    5    6 ar   
     7    5   10 ar   
     8    5   34 ar   
     9    6    7 ar   
    10    6   22 1    
    11    7    8 ar   
    12    7   23 1    
    13    8    9 ar   
    14    8   24 1    
    15    9   10 ar   
    16    9   25 1    
    17   10   11 ar   
    18   11   12 1    
    19   12   26 1    
    20   12   27 1    
    21   12   13 1    
    22   13   14 1    
    23   13   28 1    
    24   13   29 1    
    25   14   15 1    
    26   14   30 1    
    27   14   31 1    
    28   15   16 1    
    29   16   17 ar   
    30   16   21 ar   
    31   17   18 ar   
    32   17   32 1    
    33   18   19 ar   
    34   18   38 1    
    35   19   20 ar   
    36   19   37 1    
    37   20   21 ar   
    38   20   36 1    
    39   21   33 1    
    40   34   35 1    
@<TRIPOS>SUBSTRUCTURE
     1 UNK         1 GROUP             0       ****    0 ROOT    
@<TRIPOS>MOLECULE
47
43   46    1
SMALL
USER_CHARGES


@<TRIPOS>ATOM
      1 O1          3.8290  -49.9082    7.3567 O.co2     1 UNK         0.0000 
      2 C2          3.1153  -49.0416    6.8012 C.2       1 UNK         0.0000 
      3 O3          3.5513  -47.8977    6.5562 O.co2     1 UNK         0.0000 
      4 C4          1.7057  -49.3580    6.4403 C.ar      1 UNK         0.0000 
      5 C5         -0.1076  -50.6487    6.3793 C.ar      1 UNK         0.0000 
      6 C6         -1.0211  -51.7084    6.5402 C.ar      1 UNK         0.0000 
      7 C7         -2.3348  -51.5531    6.0492 C.ar      1 UNK         0.0000 
      8 C8         -2.6993  -50.3586    5.3936 C.ar      1 UNK         0.0000 
      9 C9         -1.7635  -49.3099    5.2420 C.ar      1 UNK         0.0000 
     10 C10        -0.4423  -49.4338    5.7433 C.ar      1 UNK         0.0000 
     11 C11         0.7328  -48.6071    5.8015 C.ar      1 UNK         0.0000 
     12 C12         0.8592  -47.2049    5.2675 C.3       1 UNK         0.0000 
     13 C13         0.9701  -46.1519    6.3924 C.3       1 UNK         0.0000 
     14 C14        -0.0852  -45.0395    6.3276 C.3       1 UNK         0.0000 
     15 O15        -1.4118  -45.4805    6.0441 O.3       1 UNK         0.0000 
     16 C16        -2.2386  -45.8040    7.0949 C.ar      1 UNK         0.0000 
     17 C17        -2.7241  -47.0517    9.1502 C.ar      1 UNK         0.0000 
     18 C18        -1.8288  -46.6752    8.1339 C.ar      1 UNK         0.0000 
     19 H19        -0.7154  -52.6214    7.0250 H         1 UNK         0.0000 
     20 H20        -3.0631  -52.3414    6.1810 H         1 UNK         0.0000 
     21 H21        -3.7022  -50.2445    5.0058 H         1 UNK         0.0000 
     22 H22        -2.0630  -48.4042    4.7355 H         1 UNK         0.0000 
     23 H23        -0.0106  -46.9810    4.6505 H         1 UNK         0.0000 
     24 H24         1.7183  -47.1161    4.5984 H         1 UNK         0.0000 
     25 H25         1.9636  -45.7053    6.3707 H         1 UNK         0.0000 
     26 H26         0.8877  -46.6463    7.3586 H         1 UNK         0.0000 
     27 H27         0.1710  -44.3590    5.5156 H         1 UNK         0.0000 
     28 H28        -0.0838  -44.4332    7.2312 H         1 UNK         0.0000 
     29 H29        -0.8178  -47.0608    8.1357 H         1 UNK         0.0000 
     30 C30        -3.5686  -45.3157    7.0918 C.ar      1 UNK         0.0000 
     31 H31        -2.3911  -47.7151    9.9351 H         1 UNK         0.0000 
     32 C32        -4.4644  -45.6869    8.1312 C.ar      1 UNK         0.0000 
     33 C33        -4.0387  -46.5572    9.1587 C.ar      1 UNK         0.0000 
     34 N34        -4.8923  -46.9121   10.1459 N.ar      1 UNK         0.0000 
     35 C35        -6.1555  -46.4321   10.1216 C.ar      1 UNK         0.0000 
     36 C36        -6.6260  -45.5510    9.1301 C.ar      1 UNK         0.0000 
     37 C37        -5.7781  -45.1820    8.1415 C.ar      1 UNK         0.0000 
     38 H38        -6.8095  -46.7539   10.9213 H         1 UNK         0.0000 
     39 H39        -7.6387  -45.1719    9.1562 H         1 UNK         0.0000 
     40 H40        -6.1129  -44.5116    7.3670 H         1 UNK         0.0000 
     41 H41        -3.9215  -44.6570    6.3139 H         1 UNK         0.0000 
     42 N42         1.2056  -50.5983    6.7955 N.pl3     1 UNK         0.0000 
     43 H43         1.7955  -51.2611    7.2772 H         1 UNK         0.0000 
@<TRIPOS>BOND
     1    1    2 2    
     2    2    3 1    
     3    2    4 1    
     4    4   11 ar   
     5    4   42 ar   
     6    5    6 ar   
     7    5   10 ar   
     8    5   42 ar   
     9    6    7 ar   
    10    6   19 1    
    11    7    8 ar   
    12    7   20 1    
    13    8    9 ar   
    14    8   21 1    
    15    9   10 ar   
    16    9   22 1    
    17   10   11 ar   
    18   11   12 1    
    19   12   23 1    
    20   12   24 1    
    21   12   13 1    
    22   13   14 1    
    23   13   25 1    
    24   13   26 1    
    25   14   15 1    
    26   14   27 1    
    27   14   28 1    
    28   15   16 1    
    29   16   18 ar   
    30   16   30 ar   
    31   17   18 ar   
    32   17   31 1    
    33   17   33 ar   
    34   18   29 1    
    35   30   32 ar   
    36   30   41 1    
    37   32   33 ar   
    38   32   37 ar   
    39   33   34 ar   
    40   34   35 ar   
    41   35   36 ar   
    42   35   38 1    
    43   36   37 ar   
    44   36   39 1    
    45   37   40 1    
    46   42   43 1    
@<TRIPOS>SUBSTRUCTURE
     1 UNK         1 GROUP             0       ****    0 ROOT    
@<TRIPOS>MOLECULE
57
47   50    1
SMALL
USER_CHARGES


@<TRIPOS>ATOM
      1 O1          3.8290  -49.9082    7.3567 O.co2     1 UNK         0.0000 
      2 C2          3.1153  -49.0416    6.8012 C.2       1 UNK         0.0000 
      3 O3          3.5513  -47.8977    6.5562 O.co2     1 UNK         0.0000 
      4 C4          1.7057  -49.3580    6.4403 C.ar      1 UNK         0.0000 
      5 C5         -0.1076  -50.6487    6.3793 C.ar      1 UNK         0.0000 
      6 C6         -1.0211  -51.7084    6.5402 C.ar      1 UNK         0.0000 
      7 C7         -2.3348  -51.5531    6.0492 C.ar      1 UNK         0.0000 
      8 C8         -2.6993  -50.3586    5.3936 C.ar      1 UNK         0.0000 
      9 C9         -1.7635  -49.3099    5.2420 C.ar      1 UNK         0.0000 
     10 C10        -0.4423  -49.4338    5.7433 C.ar      1 UNK         0.0000 
     11 C11         0.7328  -48.6071    5.8015 C.ar      1 UNK         0.0000 
     12 C12         0.8592  -47.2049    5.2675 C.3       1 UNK         0.0000 
     13 C13         0.9701  -46.1519    6.3924 C.3       1 UNK         0.0000 
     14 C14        -0.0852  -45.0395    6.3276 C.3       1 UNK         0.0000 
     15 O15        -1.4118  -45.4805    6.0441 O.3       1 UNK         0.0000 
     16 C16        -2.2386  -45.8040    7.0949 C.ar      1 UNK         0.0000 
     17 C17        -4.0387  -46.5572    9.1587 C.ar      1 UNK         0.0000 
     18 C18        -2.7241  -47.0517    9.1502 C.ar      1 UNK         0.0000 
     19 C19        -1.8288  -46.6752    8.1339 C.ar      1 UNK         0.0000 
     20 H20        -0.7170  -52.6168    7.0304 H         1 UNK         0.0000 
     21 H21        -3.0555  -52.3454    6.1851 H         1 UNK         0.0000 
     22 H22        -3.7049  -50.2495    5.0089 H         1 UNK         0.0000 
     23 H23        -2.0569  -48.3973    4.7401 H         1 UNK         0.0000 
     24 H24         0.0031  -46.9708    4.6346 H         1 UNK         0.0000 
     25 H25         1.7250  -47.1299    4.6075 H         1 UNK         0.0000 
     26 H26         1.9723  -45.7154    6.3952 H         1 UNK         0.0000 
     27 H27         0.8681  -46.6523    7.3559 H         1 UNK         0.0000 
     28 H28         0.1952  -44.3350    5.5451 H         1 UNK         0.0000 
     29 H29        -0.0868  -44.4965    7.2712 H         1 UNK         0.0000 
     30 H30        -0.8284  -47.0726    8.1624 H         1 UNK         0.0000 
     31 C31        -4.4644  -45.6869    8.1312 C.ar      1 UNK         0.0000 
     32 C32        -3.5686  -45.3157    7.0918 C.ar      1 UNK         0.0000 
     33 C33        -4.0196  -44.4491    6.0697 C.ar      1 UNK         0.0000 
     34 C34        -5.3473  -43.9766    6.0646 C.ar      1 UNK         0.0000 
     35 C35        -6.2357  -44.3575    7.0895 C.ar      1 UNK         0.0000 
     36 C36        -5.7910  -45.2055    8.1244 C.ar      1 UNK         0.0000 
     37 H37        -3.3577  -44.1402    5.2742 H         1 UNK         0.0000 
     38 H38        -5.6821  -43.3219    5.2729 H         1 UNK         0.0000 
     39 H39        -7.2576  -44.0002    7.0799 H         1 UNK         0.0000 
     40 H40        -6.4773  -45.4863    8.9095 H         1 UNK         0.0000 
     41 H41        -2.3983  -47.7184    9.9361 H         1 UNK         0.0000 
     42 H42        -4.7168  -46.8479    9.9469 H         1 UNK         0.0000 
     43 C43         1.9593  -51.6414    7.4849 C.3       1 UNK         0.0000 
     44 H44         1.3200  -52.5109    7.6379 H         1 UNK         0.0000 
     45 H45         2.8213  -51.9259    6.8815 H         1 UNK         0.0000 
     46 H46         2.2994  -51.2663    8.4502 H         1 UNK         0.0000 
     47 N47         1.2056  -50.5983    6.7955 N.pl3     1 UNK         0.0000 
@<TRIPOS>BOND
     1    1    2 2    
     2    2    3 1    
     3    2    4 1    
     4    4   11 ar   
     5    4   47 ar   
     6    5    6 ar   
     7    5   10 ar   
     8    5   47 ar   
     9    6    7 ar   
    10    6   20 1    
    11    7    8 ar   
    12    7   21 1    
    13    8    9 ar   
    14    8   22 1    
    15    9   10 ar   
    16    9   23 1    
    17   10   11 ar   
    18   11   12 1    
    19   12   24 1    
    20   12   25 1    
    21   12   13 1    
    22   13   14 1    
    23   13   26 1    
    24   13   27 1    
    25   14   15 1    
    26   14   28 1    
    27   14   29 1    
    28   15   16 1    
    29   16   19 ar   
    30   16   32 ar   
    31   17   18 ar   
    32   17   31 ar   
    33   17   42 1    
    34   18   19 ar   
    35   18   41 1    
    36   19   30 1    
    37   31   32 ar   
    38   31   36 ar   
    39   32   33 ar   
    40   33   34 ar   
    41   33   37 1    
    42   34   35 ar   
    43   34   38 1    
    44   35   36 ar   
    45   35   39 1    
    46   36   40 1    
    47   43   44 1    
    48   43   45 1    
    49   43   46 1    
    50   43   47 1    
@<TRIPOS>SUBSTRUCTURE
     1 UNK         1 GROUP             0       ****    0 ROOT    
@<TRIPOS>MOLECULE
56
47   49    1
SMALL
USER_CHARGES


@<TRIPOS>ATOM
      1 O1          3.8290  -49.9082    7.3567 O.co2     1 UNK         0.0000 
      2 C2          3.1153  -49.0416    6.8012 C.2       1 UNK         0.0000 
      3 O3          3.5513  -47.8977    6.5562 O.co2     1 UNK         0.0000 
      4 C4          1.7057  -49.3580    6.4403 C.ar      1 UNK         0.0000 
      5 C5         -0.1076  -50.6487    6.3793 C.ar      1 UNK         0.0000 
      6 C6         -1.0211  -51.7084    6.5402 C.ar      1 UNK         0.0000 
      7 C7         -2.3348  -51.5531    6.0492 C.ar      1 UNK         0.0000 
      8 C8         -2.6993  -50.3586    5.3936 C.ar      1 UNK         0.0000 
      9 C9         -1.7635  -49.3099    5.2420 C.ar      1 UNK         0.0000 
     10 C10        -0.4423  -49.4338    5.7433 C.ar      1 UNK         0.0000 
     11 C11         0.7328  -48.6071    5.8015 C.ar      1 UNK         0.0000 
     12 C12         0.8592  -47.2049    5.2675 C.3       1 UNK         0.0000 
     13 C13         0.9701  -46.1519    6.3924 C.3       1 UNK         0.0000 
     14 C14        -0.0852  -45.0395    6.3276 C.3       1 UNK         0.0000 
     15 O15        -1.4118  -45.4805    6.0441 O.3       1 UNK         0.0000 
     16 C16        -2.2386  -45.8040    7.0949 C.ar      1 UNK         0.0000 
     17 C17        -3.5686  -45.3157    7.0918 C.ar      1 UNK         0.0000 
     18 C18        -4.4644  -45.6869    8.1312 C.ar      1 UNK         0.0000 
     19 C19        -5.8681  -45.1581    8.1371 C.3       1 UNK         0.0000 
     20 C20        -4.0387  -46.5572    9.1587 C.ar      1 UNK         0.0000 
     21 Cl21       -5.1201  -46.9948   10.4290 Cl        1 UNK         0.0000 
     22 C22        -2.7241  -47.0517    9.1502 C.ar      1 UNK         0.0000 
     23 C23        -2.2701  -47.9759   10.2409 C.3       1 UNK         0.0000 
     24 C24        -1.8288  -46.6752    8.1339 C.ar      1 UNK         0.0000 
     25 H25        -0.7137  -52.6090    7.0399 H         1 UNK         0.0000 
     26 H26        -3.0771  -52.3424    6.1734 H         1 UNK         0.0000 
     27 H27        -3.7082  -50.2484    5.0120 H         1 UNK         0.0000 
     28 H28        -2.0617  -48.3899    4.7475 H         1 UNK         0.0000 
     29 H29         0.0126  -46.9747    4.6184 H         1 UNK         0.0000 
     30 H30         1.7386  -47.1407    4.6234 H         1 UNK         0.0000 
     31 H31         1.9578  -45.6924    6.3494 H         1 UNK         0.0000 
     32 H32         0.9105  -46.6385    7.3667 H         1 UNK         0.0000 
     33 H33         0.1862  -44.3303    5.5453 H         1 UNK         0.0000 
     34 H34        -0.1219  -44.4968    7.2732 H         1 UNK         0.0000 
     35 H35        -3.9138  -44.6627    6.3077 H         1 UNK         0.0000 
     36 H36        -6.4002  -45.5495    9.0042 H         1 UNK         0.0000 
     37 H37        -5.8460  -44.0694    8.1853 H         1 UNK         0.0000 
     38 H38        -6.3781  -45.4712    7.2261 H         1 UNK         0.0000 
     39 H39        -1.2301  -48.2549   10.0713 H         1 UNK         0.0000 
     40 H40        -2.3589  -47.4729   11.2038 H         1 UNK         0.0000 
     41 H41        -2.8913  -48.8716   10.2402 H         1 UNK         0.0000 
     42 H42        -0.8220  -47.0576    8.1258 H         1 UNK         0.0000 
     43 C43         1.9593  -51.6414    7.4849 C.3       1 UNK         0.0000 
     44 H44         1.3200  -52.5109    7.6379 H         1 UNK         0.0000 
     45 H45         2.8213  -51.9259    6.8815 H         1 UNK         0.0000 
     46 H46         2.2994  -51.2663    8.4502 H         1 UNK         0.0000 
     47 N47         1.2056  -50.5983    6.7955 N.pl3     1 UNK         0.0000 
@<TRIPOS>BOND
     1    1    2 2    
     2    2    3 1    
     3    2    4 1    
     4    4   11 ar   
     5    4   47 ar   
     6    5    6 ar   
     7    5   10 ar   
     8    5   47 ar   
     9    6    7 ar   
    10    6   25 1    
    11    7    8 ar   
    12    7   26 1    
    13    8    9 ar   
    14    8   27 1    
    15    9   10 ar   
    16    9   28 1    
    17   10   11 ar   
    18   11   12 1    
    19   12   29 1    
    20   12   30 1    
    21   12   13 1    
    22   13   14 1    
    23   13   31 1    
    24   13   32 1    
    25   14   15 1    
    26   14   33 1    
    27   14   34 1    
    28   15   16 1    
    29   16   17 ar   
    30   16   24 ar   
    31   17   18 ar   
    32   17   35 1    
    33   18   19 1    
    34   18   20 ar   
    35   19   36 1    
    36   19   37 1    
    37   19   38 1    
    38   20   21 1    
    39   20   22 ar   
    40   22   23 1    
    41   22   24 ar   
    42   23   39 1    
    43   23   40 1    
    44   23   41 1    
    45   24   42 1    
    46   43   44 1    
    47   43   45 1    
    48   43   46 1    
    49   43   47 1    
@<TRIPOS>SUBSTRUCTURE
     1 UNK         1 GROUP             0       ****    0 ROOT    
@<TRIPOS>MOLECULE
53
44   46    1
SMALL
USER_CHARGES


@<TRIPOS>ATOM
      1 O1          3.8290  -49.9082    7.3567 O.co2     1 UNK         0.0000 
      2 C2          3.1153  -49.0416    6.8012 C.2       1 UNK         0.0000 
      3 O3          3.5513  -47.8977    6.5562 O.co2     1 UNK         0.0000 
      4 C4          1.7057  -49.3580    6.4403 C.ar      1 UNK         0.0000 
      5 C5         -0.1076  -50.6487    6.3793 C.ar      1 UNK         0.0000 
      6 C6         -1.0211  -51.7084    6.5402 C.ar      1 UNK         0.0000 
      7 C7         -2.3348  -51.5531    6.0492 C.ar      1 UNK         0.0000 
      8 C8         -2.6993  -50.3586    5.3936 C.ar      1 UNK         0.0000 
      9 C9         -1.7635  -49.3099    5.2420 C.ar      1 UNK         0.0000 
     10 C10        -0.4423  -49.4338    5.7433 C.ar      1 UNK         0.0000 
     11 C11         0.7328  -48.6071    5.8015 C.ar      1 UNK         0.0000 
     12 C12         0.8592  -47.2049    5.2675 C.3       1 UNK         0.0000 
     13 C13         0.9701  -46.1519    6.3924 C.3       1 UNK         0.0000 
     14 C14        -0.0852  -45.0395    6.3276 C.3       1 UNK         0.0000 
     15 O15        -1.4118  -45.4805    6.0441 O.3       1 UNK         0.0000 
     16 C16        -2.2386  -45.8040    7.0949 C.ar      1 UNK         0.0000 
     17 C17        -3.5686  -45.3157    7.0918 C.ar      1 UNK         0.0000 
     18 C18        -4.4644  -45.6869    8.1312 C.ar      1 UNK         0.0000 
     19 C19        -5.8681  -45.1581    8.1371 C.3       1 UNK         0.0000 
     20 C20        -4.0387  -46.5572    9.1587 C.ar      1 UNK         0.0000 
     21 Cl21       -5.1201  -46.9948   10.4290 Cl        1 UNK         0.0000 
     22 C22        -2.7241  -47.0517    9.1502 C.ar      1 UNK         0.0000 
     23 C23        -2.2701  -47.9759   10.2409 C.3       1 UNK         0.0000 
     24 C24        -1.8288  -46.6752    8.1339 C.ar      1 UNK         0.0000 
     25 H25        -0.7320  -52.6009    7.0690 H         1 UNK         0.0000 
     26 Cl26       -3.4950  -52.7922    6.2898 Cl        1 UNK         0.0000 
     27 H27        -3.7151  -50.2379    5.0352 H         1 UNK         0.0000 
     28 H28        -2.0611  -48.3854    4.7661 H         1 UNK         0.0000 
     29 H29        -0.0185  -46.9807    4.6466 H         1 UNK         0.0000 
     30 H30         1.7224  -47.1283    4.6017 H         1 UNK         0.0000 
     31 H31         1.9633  -45.7121    6.3911 H         1 UNK         0.0000 
     32 H32         0.8735  -46.6587    7.3566 H         1 UNK         0.0000 
     33 H33         0.1838  -44.3256    5.5451 H         1 UNK         0.0000 
     34 H34        -0.0766  -44.5038    7.2742 H         1 UNK         0.0000 
     35 H35        -3.9201  -44.6525    6.3208 H         1 UNK         0.0000 
     36 H36        -6.4002  -45.5495    9.0042 H         1 UNK         0.0000 
     37 H37        -5.8460  -44.0694    8.1853 H         1 UNK         0.0000 
     38 H38        -6.3781  -45.4712    7.2261 H         1 UNK         0.0000 
     39 H39        -1.2301  -48.2549   10.0713 H         1 UNK         0.0000 
     40 H40        -2.3589  -47.4729   11.2038 H         1 UNK         0.0000 
     41 H41        -2.8913  -48.8716   10.2402 H         1 UNK         0.0000 
     42 H42        -0.8131  -47.0529    8.1388 H         1 UNK         0.0000 
     43 N43         1.2056  -50.5983    6.7955 N.pl3     1 UNK         0.0000 
     44 H44         1.7808  -51.2699    7.2824 H         1 UNK         0.0000 
@<TRIPOS>BOND
     1    1    2 2    
     2    2    3 1    
     3    2    4 1    
     4    4   11 ar   
     5    4   43 ar   
     6    5    6 ar   
     7    5   10 ar   
     8    5   43 ar   
     9    6    7 ar   
    10    6   25 1    
    11    7    8 ar   
    12    7   26 1    
    13    8    9 ar   
    14    8   27 1    
    15    9   10 ar   
    16    9   28 1    
    17   10   11 ar   
    18   11   12 1    
    19   12   29 1    
    20   12   30 1    
    21   12   13 1    
    22   13   14 1    
    23   13   31 1    
    24   13   32 1    
    25   14   15 1    
    26   14   33 1    
    27   14   34 1    
    28   15   16 1    
    29   16   17 ar   
    30   16   24 ar   
    31   17   18 ar   
    32   17   35 1    
    33   18   19 1    
    34   18   20 ar   
    35   19   36 1    
    36   19   37 1    
    37   19   38 1    
    38   20   21 1    
    39   20   22 ar   
    40   22   23 1    
    41   22   24 ar   
    42   23   39 1    
    43   23   40 1    
    44   23   41 1    
    45   24   42 1    
    46   43   44 1    
@<TRIPOS>SUBSTRUCTURE
     1 UNK         1 GROUP             0       ****    0 ROOT    
@<TRIPOS>MOLECULE
36
44   46    1
SMALL
USER_CHARGES


@<TRIPOS>ATOM
      1 O1          3.8290  -49.9082    7.3567 O.co2     1 UNK         0.0000 
      2 C2          3.1153  -49.0416    6.8012 C.2       1 UNK         0.0000 
      3 O3          3.5513  -47.8977    6.5562 O.co2     1 UNK         0.0000 
      4 C4          1.7057  -49.3580    6.4403 C.ar      1 UNK         0.0000 
      5 C5         -0.1076  -50.6487    6.3793 C.ar      1 UNK         0.0000 
      6 C6         -1.0211  -51.7084    6.5402 C.ar      1 UNK         0.0000 
      7 C7         -2.3348  -51.5531    6.0492 C.ar      1 UNK         0.0000 
      8 C8         -2.6993  -50.3586    5.3936 C.ar      1 UNK         0.0000 
      9 C9         -1.7635  -49.3099    5.2420 C.ar      1 UNK         0.0000 
     10 C10        -0.4423  -49.4338    5.7433 C.ar      1 UNK         0.0000 
     11 C11         0.7328  -48.6071    5.8015 C.ar      1 UNK         0.0000 
     12 C12         0.8592  -47.2049    5.2675 C.3       1 UNK         0.0000 
     13 C13         0.9701  -46.1519    6.3924 C.3       1 UNK         0.0000 
     14 C14        -0.0852  -45.0395    6.3276 C.3       1 UNK         0.0000 
     15 O15        -1.4118  -45.4805    6.0441 O.3       1 UNK         0.0000 
     16 C16        -2.2386  -45.8040    7.0949 C.ar      1 UNK         0.0000 
     17 C17        -3.5686  -45.3157    7.0918 C.ar      1 UNK         0.0000 
     18 C18        -4.4644  -45.6869    8.1312 C.ar      1 UNK         0.0000 
     19 C19        -4.0387  -46.5572    9.1587 C.ar      1 UNK         0.0000 
     20 C20        -2.7241  -47.0517    9.1502 C.ar      1 UNK         0.0000 
     21 C21        -1.8288  -46.6752    8.1339 C.ar      1 UNK         0.0000 
     22 H22        -0.7193  -52.6233    7.0301 H         1 UNK         0.0000 
     23 H23        -3.0546  -52.3484    6.1781 H         1 UNK         0.0000 
     24 H24        -3.7036  -50.2517    4.9963 H         1 UNK         0.0000 
     25 H25        -2.0640  -48.4029    4.7459 H         1 UNK         0.0000 
     26 H26         0.0175  -46.9784    4.6088 H         1 UNK         0.0000 
     27 H27         1.7404  -47.1342    4.6317 H         1 UNK         0.0000 
     28 H28         1.9593  -45.6876    6.3456 H         1 UNK         0.0000 
     29 H29         0.9227  -46.6370    7.3670 H         1 UNK         0.0000 
     30 H30         0.1734  -44.3248    5.5386 H         1 UNK         0.0000 
     31 H31        -0.1121  -44.4922    7.2757 H         1 UNK         0.0000 
     32 H32        -3.9152  -44.6515    6.3086 H         1 UNK         0.0000 
     33 H33        -0.8195  -47.0551    8.1500 H         1 UNK         0.0000 
     34 N34         1.2056  -50.5983    6.7955 N.pl3     1 UNK         0.0000 
     35 H35         1.7992  -51.2824    7.2509 H         1 UNK         0.0000 
     36 H36        -2.4032  -47.7185    9.9348 H         1 UNK         0.0000 
     37 Cl37       -5.1201  -46.9948   10.4290 Cl        1 UNK         0.0000 
     38 C38        -5.8689  -45.1602    8.1357 C.3       1 UNK         0.0000 
     39 H39        -6.5697  -45.9939    8.0911 H         1 UNK         0.0000 
     40 H40        -6.0402  -44.5900    9.0488 H         1 UNK         0.0000 
     41 C41        -6.0732  -44.2709    6.9452 C.3       1 UNK         0.0000 
     42 H42        -7.0938  -43.8882    6.9484 H         1 UNK         0.0000 
     43 H43        -5.3724  -43.4373    6.9898 H         1 UNK         0.0000 
     44 H44        -5.9019  -44.8411    6.0321 H         1 UNK         0.0000 
@<TRIPOS>BOND
     1    1    2 2    
     2    2    3 1    
     3    2    4 1    
     4    4   11 ar   
     5    4   34 ar   
     6    5    6 ar   
     7    5   10 ar   
     8    5   34 ar   
     9    6    7 ar   
    10    6   22 1    
    11    7    8 ar   
    12    7   23 1    
    13    8    9 ar   
    14    8   24 1    
    15    9   10 ar   
    16    9   25 1    
    17   10   11 ar   
    18   11   12 1    
    19   12   26 1    
    20   12   27 1    
    21   12   13 1    
    22   13   14 1    
    23   13   28 1    
    24   13   29 1    
    25   14   15 1    
    26   14   30 1    
    27   14   31 1    
    28   15   16 1    
    29   16   17 ar   
    30   16   21 ar   
    31   17   18 ar   
    32   17   32 1    
    33   18   19 ar   
    34   18   38 1    
    35   19   20 ar   
    36   19   37 1    
    37   20   21 ar   
    38   20   36 1    
    39   21   33 1    
    40   34   35 1    
    41   38   39 1    
    42   38   40 1    
    43   38   41 1    
    44   41   42 1    
    45   41   43 1    
    46   41   44 1    
@<TRIPOS>SUBSTRUCTURE
     1 UNK         1 GROUP             0       ****    0 ROOT    
@<TRIPOS>MOLECULE
60
43   45    1
SMALL
USER_CHARGES


@<TRIPOS>ATOM
      1 O1          3.8290  -49.9082    7.3567 O.co2     1 UNK         0.0000 
      2 C2          3.1153  -49.0416    6.8012 C.2       1 UNK         0.0000 
      3 O3          3.5513  -47.8977    6.5562 O.co2     1 UNK         0.0000 
      4 C4          1.7057  -49.3580    6.4403 C.2       1 UNK         0.0000 
      5 S5          1.2056  -50.5983    6.7955 S.3       1 UNK         0.0000 
      6 C6         -0.1076  -50.6487    6.3793 C.ar      1 UNK         0.0000 
      7 C7         -1.0211  -51.7084    6.5402 C.ar      1 UNK         0.0000 
      8 C8         -2.3348  -51.5531    6.0492 C.ar      1 UNK         0.0000 
      9 C9         -2.6993  -50.3586    5.3936 C.ar      1 UNK         0.0000 
     10 C10        -1.7635  -49.3099    5.2420 C.ar      1 UNK         0.0000 
     11 C11        -0.4423  -49.4338    5.7433 C.ar      1 UNK         0.0000 
     12 C12         0.7328  -48.6071    5.8015 C.2       1 UNK         0.0000 
     13 C13         0.8592  -47.2049    5.2675 C.3       1 UNK         0.0000 
     14 C14         0.9701  -46.1519    6.3924 C.3       1 UNK         0.0000 
     15 C15        -0.0852  -45.0395    6.3276 C.3       1 UNK         0.0000 
     16 O16        -1.4118  -45.4805    6.0441 O.3       1 UNK         0.0000 
     17 C17        -2.2386  -45.8040    7.0949 C.ar      1 UNK         0.0000 
     18 C18        -3.5686  -45.3157    7.0918 C.ar      1 UNK         0.0000 
     19 C19        -4.4644  -45.6869    8.1312 C.ar      1 UNK         0.0000 
     20 C20        -5.8681  -45.1581    8.1371 C.3       1 UNK         0.0000 
     21 C21        -4.0387  -46.5572    9.1587 C.ar      1 UNK         0.0000 
     22 Cl22       -5.1201  -46.9948   10.4290 Cl        1 UNK         0.0000 
     23 C23        -2.7241  -47.0517    9.1502 C.ar      1 UNK         0.0000 
     24 C24        -2.2701  -47.9759   10.2409 C.3       1 UNK         0.0000 
     25 C25        -1.8288  -46.6752    8.1339 C.ar      1 UNK         0.0000 
     26 H26        -0.7054  -52.6228    7.0225 H         1 UNK         0.0000 
     27 H27        -3.0536  -52.3498    6.1704 H         1 UNK         0.0000 
     28 H28        -3.6957  -50.2395    5.0049 H         1 UNK         0.0000 
     29 H29        -2.0614  -48.4248    4.7071 H         1 UNK         0.0000 
     30 H30         0.0011  -46.9523    4.6346 H         1 UNK         0.0000 
     31 H31         1.7258  -47.1246    4.6138 H         1 UNK         0.0000 
     32 H32         1.9664  -45.6994    6.3934 H         1 UNK         0.0000 
     33 H33         0.8642  -46.6544    7.3555 H         1 UNK         0.0000 
     34 H34         0.1909  -44.3344    5.5366 H         1 UNK         0.0000 
     35 H35        -0.1054  -44.5098    7.2845 H         1 UNK         0.0000 
     36 H36        -3.9197  -44.6615    6.3093 H         1 UNK         0.0000 
     37 H37        -6.4002  -45.5495    9.0042 H         1 UNK         0.0000 
     38 H38        -5.8460  -44.0694    8.1853 H         1 UNK         0.0000 
     39 H39        -6.3781  -45.4712    7.2261 H         1 UNK         0.0000 
     40 H40        -1.2301  -48.2549   10.0713 H         1 UNK         0.0000 
     41 H41        -2.3589  -47.4729   11.2038 H         1 UNK         0.0000 
     42 H42        -2.8913  -48.8716   10.2402 H         1 UNK         0.0000 
     43 H43        -0.8242  -47.0748    8.1186 H         1 UNK         0.0000 
@<TRIPOS>BOND
     1    1    2 2    
     2    2    3 1    
     3    2    4 1    
     4    4    5 1    
     5    4   12 2    
     6    5    6 1    
     7    6    7 ar   
     8    6   11 ar   
     9    7    8 ar   
    10    7   26 1    
    11    8    9 ar   
    12    8   27 1    
    13    9   10 ar   
    14    9   28 1    
    15   10   11 ar   
    16   10   29 1    
    17   11   12 1    
    18   12   13 1    
    19   13   30 1    
    20   13   31 1    
    21   13   14 1    
    22   14   15 1    
    23   14   32 1    
    24   14   33 1    
    25   15   16 1    
    26   15   34 1    
    27   15   35 1    
    28   16   17 1    
    29   17   18 ar   
    30   17   25 ar   
    31   18   19 ar   
    32   18   36 1    
    33   19   20 1    
    34   19   21 ar   
    35   20   37 1    
    36   20   38 1    
    37   20   39 1    
    38   21   22 1    
    39   21   23 ar   
    40   23   24 1    
    41   23   25 ar   
    42   24   40 1    
    43   24   41 1    
    44   24   42 1    
    45   25   43 1    
@<TRIPOS>SUBSTRUCTURE
     1 UNK         1 GROUP             0       ****    0 ROOT    
@<TRIPOS>MOLECULE
45
48   51    1
SMALL
USER_CHARGES


@<TRIPOS>ATOM
      1 O1          3.8290  -49.9082    7.3567 O.co2     1 UNK         0.0000 
      2 C2          3.1153  -49.0416    6.8012 C.2       1 UNK         0.0000 
      3 O3          3.5513  -47.8977    6.5562 O.co2     1 UNK         0.0000 
      4 C4          1.7057  -49.3580    6.4403 C.ar      1 UNK         0.0000 
      5 C5         -0.1076  -50.6487    6.3793 C.ar      1 UNK         0.0000 
      6 C6         -1.0211  -51.7084    6.5402 C.ar      1 UNK         0.0000 
      7 C7         -2.3348  -51.5531    6.0492 C.ar      1 UNK         0.0000 
      8 C8         -2.6993  -50.3586    5.3936 C.ar      1 UNK         0.0000 
      9 C9         -1.7635  -49.3099    5.2420 C.ar      1 UNK         0.0000 
     10 C10        -0.4423  -49.4338    5.7433 C.ar      1 UNK         0.0000 
     11 C11         0.7328  -48.6071    5.8015 C.ar      1 UNK         0.0000 
     12 C12         0.8592  -47.2049    5.2675 C.3       1 UNK         0.0000 
     13 C13         0.9701  -46.1519    6.3924 C.3       1 UNK         0.0000 
     14 C14        -0.0852  -45.0395    6.3276 C.3       1 UNK         0.0000 
     15 O15        -1.4118  -45.4805    6.0441 O.3       1 UNK         0.0000 
     16 C16        -2.2386  -45.8040    7.0949 C.ar      1 UNK         0.0000 
     17 C17        -4.0387  -46.5572    9.1587 C.ar      1 UNK         0.0000 
     18 C18        -2.7241  -47.0517    9.1502 C.ar      1 UNK         0.0000 
     19 C19        -1.8288  -46.6752    8.1339 C.ar      1 UNK         0.0000 
     20 H20        -0.7194  -52.6202    7.0398 H         1 UNK         0.0000 
     21 H21        -3.0581  -52.3489    6.1717 H         1 UNK         0.0000 
     22 H22        -3.7053  -50.2510    5.0085 H         1 UNK         0.0000 
     23 H23        -2.0714  -48.3960    4.7426 H         1 UNK         0.0000 
     24 H24         0.0187  -46.9705    4.6162 H         1 UNK         0.0000 
     25 H25         1.7379  -47.1386    4.6255 H         1 UNK         0.0000 
     26 H26         1.9632  -45.6994    6.3532 H         1 UNK         0.0000 
     27 H27         0.9156  -46.6528    7.3557 H         1 UNK         0.0000 
     28 H28         0.2014  -44.3424    5.5340 H         1 UNK         0.0000 
     29 H29        -0.1070  -44.4799    7.2640 H         1 UNK         0.0000 
     30 H30        -0.8228  -47.0675    8.1810 H         1 UNK         0.0000 
     31 C31        -4.4644  -45.6869    8.1312 C.ar      1 UNK         0.0000 
     32 C32        -3.5686  -45.3157    7.0918 C.ar      1 UNK         0.0000 
     33 C33        -4.0178  -44.4147    5.9469 C.3       1 UNK         0.0000 
     34 C34        -5.3333  -43.6708    6.2161 C.3       1 UNK         0.0000 
     35 C35        -6.3801  -44.6034    6.8299 C.3       1 UNK         0.0000 
     36 C36        -5.8936  -45.1644    8.1721 C.3       1 UNK         0.0000 
     37 H37        -2.3976  -47.7192    9.9329 H         1 UNK         0.0000 
     38 H38        -4.7128  -46.8474    9.9527 H         1 UNK         0.0000 
     39 H39        -4.1266  -45.0445    5.0634 H         1 UNK         0.0000 
     40 H40        -3.2317  -43.6942    5.7179 H         1 UNK         0.0000 
     41 H41        -5.7050  -43.2227    5.2942 H         1 UNK         0.0000 
     42 H42        -5.1457  -42.8480    6.9072 H         1 UNK         0.0000 
     43 H43        -6.5689  -45.4275    6.1405 H         1 UNK         0.0000 
     44 H44        -7.3300  -44.0847    6.9624 H         1 UNK         0.0000 
     45 H45        -5.9370  -44.3829    8.9315 H         1 UNK         0.0000 
     46 H46        -6.5641  -45.9583    8.5032 H         1 UNK         0.0000 
     47 N47         1.2056  -50.5983    6.7955 N.pl3     1 UNK         0.0000 
     48 H48         1.8076  -51.2676    7.2569 H         1 UNK         0.0000 
@<TRIPOS>BOND
     1    1    2 2    
     2    2    3 1    
     3    2    4 1    
     4    4   11 ar   
     5    4   47 ar   
     6    5    6 ar   
     7    5   10 ar   
     8    5   47 ar   
     9    6    7 ar   
    10    6   20 1    
    11    7    8 ar   
    12    7   21 1    
    13    8    9 ar   
    14    8   22 1    
    15    9   10 ar   
    16    9   23 1    
    17   10   11 ar   
    18   11   12 1    
    19   12   24 1    
    20   12   25 1    
    21   12   13 1    
    22   13   14 1    
    23   13   26 1    
    24   13   27 1    
    25   14   15 1    
    26   14   28 1    
    27   14   29 1    
    28   15   16 1    
    29   16   19 ar   
    30   16   32 ar   
    31   17   18 ar   
    32   17   31 ar   
    33   17   38 1    
    34   18   19 ar   
    35   18   37 1    
    36   19   30 1    
    37   31   32 ar   
    38   31   36 1    
    39   32   33 1    
    40   33   34 1    
    41   33   39 1    
    42   33   40 1    
    43   34   35 1    
    44   34   41 1    
    45   34   42 1    
    46   35   36 1    
    47   35   43 1    
    48   35   44 1    
    49   36   45 1    
    50   36   46 1    
    51   47   48 1    
@<TRIPOS>SUBSTRUCTURE
     1 UNK         1 GROUP             0       ****    0 ROOT    
@<TRIPOS>MOLECULE
42
44   47    1
SMALL
USER_CHARGES


@<TRIPOS>ATOM
      1 O1          3.8290  -49.9082    7.3567 O.co2     1 UNK         0.0000 
      2 C2          3.1153  -49.0416    6.8012 C.2       1 UNK         0.0000 
      3 O3          3.5513  -47.8977    6.5562 O.co2     1 UNK         0.0000 
      4 C4          1.7057  -49.3580    6.4403 C.ar      1 UNK         0.0000 
      5 C5         -0.1076  -50.6487    6.3793 C.ar      1 UNK         0.0000 
      6 C6         -1.0211  -51.7084    6.5402 C.ar      1 UNK         0.0000 
      7 C7         -2.3348  -51.5531    6.0492 C.ar      1 UNK         0.0000 
      8 C8         -2.6993  -50.3586    5.3936 C.ar      1 UNK         0.0000 
      9 C9         -1.7635  -49.3099    5.2420 C.ar      1 UNK         0.0000 
     10 C10        -0.4423  -49.4338    5.7433 C.ar      1 UNK         0.0000 
     11 C11         0.7328  -48.6071    5.8015 C.ar      1 UNK         0.0000 
     12 C12         0.8592  -47.2049    5.2675 C.3       1 UNK         0.0000 
     13 C13         0.9701  -46.1519    6.3924 C.3       1 UNK         0.0000 
     14 C14        -0.0852  -45.0395    6.3276 C.3       1 UNK         0.0000 
     15 O15        -1.4118  -45.4805    6.0441 O.3       1 UNK         0.0000 
     16 C16        -2.2386  -45.8040    7.0949 C.ar      1 UNK         0.0000 
     17 C17        -4.0387  -46.5572    9.1587 C.ar      1 UNK         0.0000 
     18 C18        -2.7241  -47.0517    9.1502 C.ar      1 UNK         0.0000 
     19 C19        -1.8288  -46.6752    8.1339 C.ar      1 UNK         0.0000 
     20 H20        -0.7291  -52.6174    7.0369 H         1 UNK         0.0000 
     21 H21        -3.0692  -52.3441    6.1790 H         1 UNK         0.0000 
     22 H22        -3.7107  -50.2318    5.0093 H         1 UNK         0.0000 
     23 H23        -2.0583  -48.4059    4.7318 H         1 UNK         0.0000 
     24 H24        -0.0019  -46.9756    4.6433 H         1 UNK         0.0000 
     25 H25         1.7238  -47.1271    4.6046 H         1 UNK         0.0000 
     26 H26         1.9624  -45.6989    6.3653 H         1 UNK         0.0000 
     27 H27         0.8873  -46.6500    7.3559 H         1 UNK         0.0000 
     28 H28         0.1812  -44.3375    5.5366 H         1 UNK         0.0000 
     29 H29        -0.1146  -44.4902    7.2717 H         1 UNK         0.0000 
     30 H30        -0.8328  -47.0844    8.1925 H         1 UNK         0.0000 
     31 C31        -4.4644  -45.6869    8.1312 C.ar      1 UNK         0.0000 
     32 C32        -3.5686  -45.3157    7.0918 C.ar      1 UNK         0.0000 
     33 C33        -4.0196  -44.4491    6.0697 C.ar      1 UNK         0.0000 
     34 C34        -5.3473  -43.9766    6.0646 C.ar      1 UNK         0.0000 
     35 C35        -6.2357  -44.3575    7.0895 C.ar      1 UNK         0.0000 
     36 C36        -5.7910  -45.2055    8.1244 C.ar      1 UNK         0.0000 
     37 H37        -3.3604  -44.1319    5.2774 H         1 UNK         0.0000 
     38 H38        -5.6647  -43.3204    5.2652 H         1 UNK         0.0000 
     39 H39        -7.2547  -43.9995    7.0838 H         1 UNK         0.0000 
     40 H40        -6.4734  -45.4888    8.9095 H         1 UNK         0.0000 
     41 H41        -2.3857  -47.7283    9.9244 H         1 UNK         0.0000 
     42 H42        -4.7059  -46.8535    9.9508 H         1 UNK         0.0000 
     43 N43         1.2056  -50.5983    6.7955 N.pl3     1 UNK         0.0000 
     44 H44         1.7942  -51.2665    7.2747 H         1 UNK         0.0000 
@<TRIPOS>BOND
     1    1    2 2    
     2    2    3 1    
     3    2    4 1    
     4    4   11 ar   
     5    4   43 ar   
     6    5    6 ar   
     7    5   10 ar   
     8    5   43 ar   
     9    6    7 ar   
    10    6   20 1    
    11    7    8 ar   
    12    7   21 1    
    13    8    9 ar   
    14    8   22 1    
    15    9   10 ar   
    16    9   23 1    
    17   10   11 ar   
    18   11   12 1    
    19   12   24 1    
    20   12   25 1    
    21   12   13 1    
    22   13   14 1    
    23   13   26 1    
    24   13   27 1    
    25   14   15 1    
    26   14   28 1    
    27   14   29 1    
    28   15   16 1    
    29   16   19 ar   
    30   16   32 ar   
    31   17   18 ar   
    32   17   31 ar   
    33   17   42 1    
    34   18   19 ar   
    35   18   41 1    
    36   19   30 1    
    37   31   32 ar   
    38   31   36 ar   
    39   32   33 ar   
    40   33   34 ar   
    41   33   37 1    
    42   34   35 ar   
    43   34   38 1    
    44   35   36 ar   
    45   35   39 1    
    46   36   40 1    
    47   43   44 1    
@<TRIPOS>SUBSTRUCTURE
     1 UNK         1 GROUP             0       ****    0 ROOT    
@<TRIPOS>MOLECULE
67
43   45    1
SMALL
USER_CHARGES


@<TRIPOS>ATOM
      1 O1          3.8290  -49.9082    7.3567 O.co2     1 UNK         0.0000 
      2 C2          3.1153  -49.0416    6.8012 C.2       1 UNK         0.0000 
      3 O3          3.5513  -47.8977    6.5562 O.co2     1 UNK         0.0000 
      4 C4          1.7057  -49.3580    6.4403 C.2       1 UNK         0.0000 
      5 C5         -0.1076  -50.6487    6.3793 C.ar      1 UNK         0.0000 
      6 C6         -1.0211  -51.7084    6.5402 C.ar      1 UNK         0.0000 
      7 C7         -2.3348  -51.5531    6.0492 C.ar      1 UNK         0.0000 
      8 C8         -2.6993  -50.3586    5.3936 C.ar      1 UNK         0.0000 
      9 C9         -1.7635  -49.3099    5.2420 C.ar      1 UNK         0.0000 
     10 C10        -0.4423  -49.4338    5.7433 C.ar      1 UNK         0.0000 
     11 C11         0.7328  -48.6071    5.8015 C.2       1 UNK         0.0000 
     12 C12         0.8592  -47.2049    5.2675 C.3       1 UNK         0.0000 
     13 C13         0.9701  -46.1519    6.3924 C.3       1 UNK         0.0000 
     14 C14        -0.0852  -45.0395    6.3276 C.3       1 UNK         0.0000 
     15 O15        -1.4118  -45.4805    6.0441 O.3       1 UNK         0.0000 
     16 C16        -2.2386  -45.8040    7.0949 C.ar      1 UNK         0.0000 
     17 C17        -3.5686  -45.3157    7.0918 C.ar      1 UNK         0.0000 
     18 C18        -4.4644  -45.6869    8.1312 C.ar      1 UNK         0.0000 
     19 C19        -5.8681  -45.1581    8.1371 C.3       1 UNK         0.0000 
     20 C20        -4.0387  -46.5572    9.1587 C.ar      1 UNK         0.0000 
     21 Cl21       -5.1201  -46.9948   10.4290 Cl        1 UNK         0.0000 
     22 C22        -2.7241  -47.0517    9.1502 C.ar      1 UNK         0.0000 
     23 C23        -2.2701  -47.9759   10.2409 C.3       1 UNK         0.0000 
     24 C24        -1.8288  -46.6752    8.1339 C.ar      1 UNK         0.0000 
     25 H25        -0.7187  -52.6233    7.0320 H         1 UNK         0.0000 
     26 H26        -3.0719  -52.3442    6.1747 H         1 UNK         0.0000 
     27 H27        -3.6938  -50.2362    5.0018 H         1 UNK         0.0000 
     28 H28        -2.0605  -48.3986    4.7418 H         1 UNK         0.0000 
     29 H29        -0.0137  -47.0001    4.6476 H         1 UNK         0.0000 
     30 H30         1.7175  -47.1238    4.6100 H         1 UNK         0.0000 
     31 H31         1.9596  -45.7132    6.3773 H         1 UNK         0.0000 
     32 H32         0.8841  -46.6566    7.3525 H         1 UNK         0.0000 
     33 H33         0.1764  -44.3374    5.5318 H         1 UNK         0.0000 
     34 H34        -0.0906  -44.4875    7.2685 H         1 UNK         0.0000 
     35 H35        -3.9224  -44.6472    6.3219 H         1 UNK         0.0000 
     36 H36        -6.4002  -45.5495    9.0042 H         1 UNK         0.0000 
     37 H37        -5.8460  -44.0694    8.1853 H         1 UNK         0.0000 
     38 H38        -6.3781  -45.4712    7.2261 H         1 UNK         0.0000 
     39 H39        -1.2301  -48.2549   10.0713 H         1 UNK         0.0000 
     40 H40        -2.3589  -47.4729   11.2038 H         1 UNK         0.0000 
     41 H41        -2.8913  -48.8716   10.2402 H         1 UNK         0.0000 
     42 H42        -0.8174  -47.0433    8.1374 H         1 UNK         0.0000 
     43 O43         1.2056  -50.5983    6.7955 O.3       1 UNK         0.0000 
@<TRIPOS>BOND
     1    1    2 2    
     2    2    3 1    
     3    2    4 1    
     4    4   11 2    
     5    4   43 1    
     6    5    6 ar   
     7    5   10 ar   
     8    5   43 1    
     9    6    7 ar   
    10    6   25 1    
    11    7    8 ar   
    12    7   26 1    
    13    8    9 ar   
    14    8   27 1    
    15    9   10 ar   
    16    9   28 1    
    17   10   11 1    
    18   11   12 1    
    19   12   29 1    
    20   12   30 1    
    21   12   13 1    
    22   13   14 1    
    23   13   31 1    
    24   13   32 1    
    25   14   15 1    
    26   14   33 1    
    27   14   34 1    
    28   15   16 1    
    29   16   17 ar   
    30   16   24 ar   
    31   17   18 ar   
    32   17   35 1    
    33   18   19 1    
    34   18   20 ar   
    35   19   36 1    
    36   19   37 1    
    37   19   38 1    
    38   20   21 1    
    39   20   22 ar   
    40   22   23 1    
    41   22   24 ar   
    42   23   39 1    
    43   23   40 1    
    44   23   41 1    
    45   24   42 1    
@<TRIPOS>SUBSTRUCTURE
     1 UNK         1 GROUP             0       ****    0 ROOT    
@<TRIPOS>MOLECULE
34
41   43    1
SMALL
USER_CHARGES


@<TRIPOS>ATOM
      1 O1          3.8290  -49.9082    7.3567 O.co2     1 UNK         0.0000 
      2 C2          3.1153  -49.0416    6.8012 C.2       1 UNK         0.0000 
      3 O3          3.5513  -47.8977    6.5562 O.co2     1 UNK         0.0000 
      4 C4          1.7057  -49.3580    6.4403 C.ar      1 UNK         0.0000 
      5 C5         -0.1076  -50.6487    6.3793 C.ar      1 UNK         0.0000 
      6 C6         -1.0211  -51.7084    6.5402 C.ar      1 UNK         0.0000 
      7 C7         -2.3348  -51.5531    6.0492 C.ar      1 UNK         0.0000 
      8 C8         -2.6993  -50.3586    5.3936 C.ar      1 UNK         0.0000 
      9 C9         -1.7635  -49.3099    5.2420 C.ar      1 UNK         0.0000 
     10 C10        -0.4423  -49.4338    5.7433 C.ar      1 UNK         0.0000 
     11 C11         0.7328  -48.6071    5.8015 C.ar      1 UNK         0.0000 
     12 C12         0.8592  -47.2049    5.2675 C.3       1 UNK         0.0000 
     13 C13         0.9701  -46.1519    6.3924 C.3       1 UNK         0.0000 
     14 C14        -0.0852  -45.0395    6.3276 C.3       1 UNK         0.0000 
     15 O15        -1.4118  -45.4805    6.0441 O.3       1 UNK         0.0000 
     16 C16        -2.2386  -45.8040    7.0949 C.ar      1 UNK         0.0000 
     17 C17        -1.8288  -46.6752    8.1339 C.ar      1 UNK         0.0000 
     18 C18        -2.7241  -47.0517    9.1502 C.ar      1 UNK         0.0000 
     19 C19        -4.0387  -46.5572    9.1587 C.ar      1 UNK         0.0000 
     20 C20        -4.4644  -45.6869    8.1312 C.ar      1 UNK         0.0000 
     21 C21        -3.5686  -45.3157    7.0918 C.ar      1 UNK         0.0000 
     22 H22        -0.7178  -52.6145    7.0329 H         1 UNK         0.0000 
     23 H23        -3.0522  -52.3500    6.1755 H         1 UNK         0.0000 
     24 H24        -3.7077  -50.2491    5.0025 H         1 UNK         0.0000 
     25 H25        -2.0628  -48.3986    4.7439 H         1 UNK         0.0000 
     26 H26        -0.0055  -46.9850    4.6370 H         1 UNK         0.0000 
     27 H27         1.7252  -47.1087    4.6089 H         1 UNK         0.0000 
     28 H28         1.9654  -45.7084    6.3830 H         1 UNK         0.0000 
     29 H29         0.8698  -46.6433    7.3608 H         1 UNK         0.0000 
     30 H30         0.1690  -44.3459    5.5233 H         1 UNK         0.0000 
     31 H31        -0.0881  -44.4437    7.2396 H         1 UNK         0.0000 
     32 H32        -0.8236  -47.0720    8.1693 H         1 UNK         0.0000 
     33 H33        -3.8923  -44.6463    6.3080 H         1 UNK         0.0000 
     34 N34         1.2056  -50.5983    6.7955 N.pl3     1 UNK         0.0000 
     35 H35         1.7832  -51.2787    7.2825 H         1 UNK         0.0000 
     36 H36        -5.4682  -45.2918    8.1486 H         1 UNK         0.0000 
     37 H37        -2.3796  -47.7135    9.9306 H         1 UNK         0.0000 
     38 C38        -4.9841  -46.9491   10.2553 C.3       1 UNK         0.0000 
     39 F39        -6.2261  -46.9474    9.7740 F         1 UNK         0.0000 
     40 F40        -4.6622  -48.1678   10.6860 F         1 UNK         0.0000 
     41 F41        -4.8778  -46.0696   11.2500 F         1 UNK         0.0000 
@<TRIPOS>BOND
     1    1    2 2    
     2    2    3 1    
     3    2    4 1    
     4    4   11 ar   
     5    4   34 ar   
     6    5    6 ar   
     7    5   10 ar   
     8    5   34 ar   
     9    6    7 ar   
    10    6   22 1    
    11    7    8 ar   
    12    7   23 1    
    13    8    9 ar   
    14    8   24 1    
    15    9   10 ar   
    16    9   25 1    
    17   10   11 ar   
    18   11   12 1    
    19   12   26 1    
    20   12   27 1    
    21   12   13 1    
    22   13   14 1    
    23   13   28 1    
    24   13   29 1    
    25   14   15 1    
    26   14   30 1    
    27   14   31 1    
    28   15   16 1    
    29   16   17 ar   
    30   16   21 ar   
    31   17   18 ar   
    32   17   32 1    
    33   18   19 ar   
    34   18   37 1    
    35   19   20 ar   
    36   19   38 1    
    37   20   21 ar   
    38   20   36 1    
    39   21   33 1    
    40   34   35 1    
    41   38   39 1    
    42   38   40 1    
    43   38   41 1    
@<TRIPOS>SUBSTRUCTURE
     1 UNK         1 GROUP             0       ****    0 ROOT    
@<TRIPOS>MOLECULE
43
44   47    1
SMALL
USER_CHARGES


@<TRIPOS>ATOM
      1 O1          3.8290  -49.9082    7.3567 O.co2     1 UNK         0.0000 
      2 C2          3.1153  -49.0416    6.8012 C.2       1 UNK         0.0000 
      3 O3          3.5513  -47.8977    6.5562 O.co2     1 UNK         0.0000 
      4 C4          1.7057  -49.3580    6.4403 C.ar      1 UNK         0.0000 
      5 C5         -0.1076  -50.6487    6.3793 C.ar      1 UNK         0.0000 
      6 C6         -1.0211  -51.7084    6.5402 C.ar      1 UNK         0.0000 
      7 C7         -2.3348  -51.5531    6.0492 C.ar      1 UNK         0.0000 
      8 C8         -2.6993  -50.3586    5.3936 C.ar      1 UNK         0.0000 
      9 C9         -1.7635  -49.3099    5.2420 C.ar      1 UNK         0.0000 
     10 C10        -0.4423  -49.4338    5.7433 C.ar      1 UNK         0.0000 
     11 C11         0.7328  -48.6071    5.8015 C.ar      1 UNK         0.0000 
     12 C12         0.8592  -47.2049    5.2675 C.3       1 UNK         0.0000 
     13 C13         0.9701  -46.1519    6.3924 C.3       1 UNK         0.0000 
     14 C14        -0.0852  -45.0395    6.3276 C.3       1 UNK         0.0000 
     15 O15        -1.4118  -45.4805    6.0441 O.3       1 UNK         0.0000 
     16 C16        -2.2386  -45.8040    7.0949 C.ar      1 UNK         0.0000 
     17 C17        -2.7241  -47.0517    9.1502 C.ar      1 UNK         0.0000 
     18 C18        -1.8288  -46.6752    8.1339 C.ar      1 UNK         0.0000 
     19 H19        -0.7159  -52.6180    7.0343 H         1 UNK         0.0000 
     20 H20        -3.0544  -52.3473    6.1798 H         1 UNK         0.0000 
     21 H21        -3.6995  -50.2426    5.0055 H         1 UNK         0.0000 
     22 H22        -2.0598  -48.3989    4.7403 H         1 UNK         0.0000 
     23 H23         0.0042  -46.9752    4.6327 H         1 UNK         0.0000 
     24 H24         1.7331  -47.1355    4.6179 H         1 UNK         0.0000 
     25 H25         1.9643  -45.7064    6.3861 H         1 UNK         0.0000 
     26 H26         0.8782  -46.6532    7.3549 H         1 UNK         0.0000 
     27 H27         0.1749  -44.3335    5.5395 H         1 UNK         0.0000 
     28 H28        -0.0972  -44.4904    7.2697 H         1 UNK         0.0000 
     29 H29        -0.8199  -47.0599    8.1381 H         1 UNK         0.0000 
     30 C30        -3.5686  -45.3157    7.0918 C.ar      1 UNK         0.0000 
     31 H31        -2.3939  -47.7192    9.9351 H         1 UNK         0.0000 
     32 C32        -4.4644  -45.6869    8.1312 C.ar      1 UNK         0.0000 
     33 C33        -4.0387  -46.5572    9.1587 C.ar      1 UNK         0.0000 
     34 C34        -4.9329  -46.9264   10.1851 C.ar      1 UNK         0.0000 
     35 C35        -6.2499  -46.4270   10.1877 C.ar      1 UNK         0.0000 
     36 C36        -6.6759  -45.5592    9.1637 C.ar      1 UNK         0.0000 
     37 C37        -5.7850  -45.1904    8.1368 C.ar      1 UNK         0.0000 
     38 H38        -4.6135  -47.5930   10.9727 H         1 UNK         0.0000 
     39 H39        -6.9334  -46.7110   10.9747 H         1 UNK         0.0000 
     40 H40        -7.6864  -45.1770    9.1643 H         1 UNK         0.0000 
     41 H41        -6.1205  -44.5264    7.3536 H         1 UNK         0.0000 
     42 H42        -3.9226  -44.6489    6.3208 H         1 UNK         0.0000 
     43 N43         1.2056  -50.5983    6.7955 N.pl3     1 UNK         0.0000 
     44 H44         1.7927  -51.2652    7.2779 H         1 UNK         0.0000 
@<TRIPOS>BOND
     1    1    2 2    
     2    2    3 1    
     3    2    4 1    
     4    4   11 ar   
     5    4   43 ar   
     6    5    6 ar   
     7    5   10 ar   
     8    5   43 ar   
     9    6    7 ar   
    10    6   19 1    
    11    7    8 ar   
    12    7   20 1    
    13    8    9 ar   
    14    8   21 1    
    15    9   10 ar   
    16    9   22 1    
    17   10   11 ar   
    18   11   12 1    
    19   12   23 1    
    20   12   24 1    
    21   12   13 1    
    22   13   14 1    
    23   13   25 1    
    24   13   26 1    
    25   14   15 1    
    26   14   27 1    
    27   14   28 1    
    28   15   16 1    
    29   16   18 ar   
    30   16   30 ar   
    31   17   18 ar   
    32   17   31 1    
    33   17   33 ar   
    34   18   29 1    
    35   30   32 ar   
    36   30   42 1    
    37   32   33 ar   
    38   32   37 ar   
    39   33   34 ar   
    40   34   35 ar   
    41   34   38 1    
    42   35   36 ar   
    43   35   39 1    
    44   36   37 ar   
    45   36   40 1    
    46   37   41 1    
    47   43   44 1    
@<TRIPOS>SUBSTRUCTURE
     1 UNK         1 GROUP             0       ****    0 ROOT    
