@<TRIPOS>MOLECULE
1a
52   54   0
SMALL
NO_CHARGES


@<TRIPOS>ATOM
      1 N1         18.2653  -13.2407   21.7065 N.am      1 UNK        -0.2596
      2 C1         18.0666  -11.9445   21.0290 C.3       1 UNK         0.0813
      3 C14        17.3965  -13.7802   22.5963 C.2       1 UNK         0.3139
      4 O32        16.3982  -13.1682   22.9797 O.2       1 UNK        -0.4752
      5 C7         16.6625  -11.7536   20.4056 C.2       1 UNK         0.6165
      6 O22        16.1638  -12.6466   19.7188 O.2       1 UNK        -0.5720
      7 C2         19.1633  -11.8944   19.9556 C.3       1 UNK        -0.2809
      8 C5         17.6504  -15.1803   23.1883 C.3       1 UNK         0.2930
      9 N23        16.0423  -10.5938   20.6504 N.am      1 UNK        -0.6431
     10 C3         20.2631  -12.8149   20.4461 C.3       1 UNK         0.1677
     11 N13        16.4085  -15.9685   23.1119 N.4       1 UNK        -0.5133
     12 C33        18.1359  -15.1116   24.6549 C.3       1 UNK        -0.4514
     13 C24        14.7042  -10.2162   20.2151 C.3       1 UNK         0.1305
     14 C4         19.5455  -13.8412   21.3148 C.3       1 UNK        -0.1520
     15 C6         19.5607  -14.6147   24.8273 C.ar      1 UNK         0.2325
     16 C25        13.6411  -10.3567   21.2915 C.ar      1 UNK         0.1879
     17 C8         20.6532  -15.4491   24.5107 C.ar      1 UNK        -0.1868
     18 C26        12.9051  -11.5528   21.4232 C.ar      1 UNK        -0.2177
     19 C9         21.9704  -14.9618   24.6258 C.ar      1 UNK        -0.1498
     20 C27        11.8942  -11.6572   22.4010 C.ar      1 UNK        -0.0491
     21 C10        22.2000  -13.6406   25.0541 C.ar      1 UNK        -0.1339
     22 C28        11.6200  -10.5698   23.2551 C.ar      1 UNK        -0.3426
     23 C11        21.1138  -12.8171   25.3982 C.ar      1 UNK        -0.0621
     24 C29        12.3724   -9.3839   23.1465 C.ar      1 UNK         0.3911
     25 C12        19.8041  -13.3098   25.2934 C.ar      1 UNK        -0.2352
     26 C30        13.3735   -9.2784   22.1614 C.ar      1 UNK        -0.4181
     27 H1         18.2474  -11.1582   21.7620 H         1 UNK         0.1116
     28 H21        18.7936  -12.2620   18.9963 H         1 UNK         0.1063
     29 H22        19.5343  -10.8860   19.7988 H         1 UNK         0.1040
     30 H5         18.3792  -15.7319   22.5964 H         1 UNK         0.0967
     31 HN2        16.5570   -9.8862   21.1744 H         1 UNK         0.3858
     32 H31        20.8271  -13.2713   19.6313 H         1 UNK         0.0288
     33 H32        20.9676  -12.2499   21.0584 H         1 UNK        -0.0101
     34 HN1        16.5535  -16.8859   23.5060 H         1 UNK         0.4071
     35 H2         15.6840  -15.4823   23.6275 H         1 UNK         0.3504
     36 H3         16.1223  -16.0495   22.1472 H         1 UNK         0.3987
     37 H331       17.4592  -14.4892   25.2450 H         1 UNK         0.1646
     38 H332       18.0840  -16.1034   25.1064 H         1 UNK         0.1623
     39 H241       14.7435   -9.1704   19.9109 H         1 UNK         0.0818
     40 H242       14.4033  -10.7906   19.3362 H         1 UNK         0.0476
     41 H41        20.1639  -14.1034   22.1713 H         1 UNK         0.0945
     42 H42        19.3594  -14.7475   20.7370 H         1 UNK         0.1253
     43 H8         20.4895  -16.4612   24.1669 H         1 UNK         0.1455
     44 H26        13.1156  -12.3917   20.7721 H         1 UNK         0.0979
     45 H9         22.8084  -15.6006   24.3833 H         1 UNK         0.1439
     46 H27        11.3272  -12.5728   22.4996 H         1 UNK         0.1368
     47 H10        23.2096  -13.2663   25.1322 H         1 UNK         0.1353
     48 H11        21.2702  -11.8083   25.7509 H         1 UNK         0.1210
     49 F1         12.1409   -8.3496   23.9892 F         1 UNK        -0.2106
     50 H12        18.9895  -12.6776   25.5903 H         1 UNK         0.1432
     51 H30        13.9376   -8.3606   22.0851 H         1 UNK         0.1799
     52 H28        10.8384  -10.6464   23.9995 H         1 UNK         0.1802
@<TRIPOS>BOND
     1    1    2 1    
     2    1   14 1    
     3    1    3 am   
     4    2    5 1    
     5    2    7 1    
     6    2   27 1    
     7    3    8 1    
     8    3    4 2    
     9    5    6 2    
    10    5    9 am   
    11    7   10 1    
    12    7   28 1    
    13    7   29 1    
    14    8   11 1    
    15    8   12 1    
    16    8   30 1    
    17    9   13 1    
    18    9   31 1    
    19   10   14 1    
    20   10   32 1    
    21   10   33 1    
    22   11   34 1    
    23   11   35 1    
    24   11   36 1    
    25   12   15 1    
    26   12   37 1    
    27   12   38 1    
    28   13   16 1    
    29   13   39 1    
    30   13   40 1    
    31   14   41 1    
    32   14   42 1    
    33   15   17 ar   
    34   15   25 ar   
    35   16   18 ar   
    36   16   26 ar   
    37   17   19 ar   
    38   17   43 1    
    39   18   20 ar   
    40   18   44 1    
    41   19   21 ar   
    42   19   45 1    
    43   20   22 ar   
    44   20   46 1    
    45   21   23 ar   
    46   21   47 1    
    47   22   24 ar   
    48   22   52 1    
    49   23   25 ar   
    50   23   48 1    
    51   24   26 ar   
    52   24   49 1    
    53   25   50 1    
    54   26   51 1    
@<TRIPOS>SUBSTRUCTURE
@<TRIPOS>MOLECULE
1b
52   54   0
SMALL
NO_CHARGES


@<TRIPOS>ATOM
      1 N1         18.2653  -13.2407   21.7065 N.am      1 UNK        -0.3131
      2 C1         18.0666  -11.9445   21.0290 C.3       1 UNK         0.0677
      3 C14        17.3965  -13.7802   22.5963 C.2       1 UNK         0.3773
      4 O32        16.3982  -13.1682   22.9797 O.2       1 UNK        -0.5276
      5 C7         16.6625  -11.7536   20.4056 C.2       1 UNK         0.4939
      6 O22        16.1638  -12.6466   19.7188 O.2       1 UNK        -0.4905
      7 C2         19.1633  -11.8944   19.9556 C.3       1 UNK        -0.0876
      8 C5         17.6504  -15.1803   23.1883 C.3       1 UNK         0.3554
      9 N23        16.0423  -10.5938   20.6504 N.am      1 UNK        -0.5551
     10 C3         20.2631  -12.8149   20.4461 C.3       1 UNK        -0.0626
     11 N13        16.4086  -15.9682   23.1113 N.4       1 UNK        -0.5095
     12 C33        18.1359  -15.1116   24.6549 C.3       1 UNK        -0.4794
     13 C24        14.7042  -10.2162   20.2151 C.3       1 UNK        -0.1213
     14 C4         19.5455  -13.8412   21.3148 C.3       1 UNK         0.1071
     15 C6         19.5607  -14.6147   24.8273 C.ar      1 UNK         0.2899
     16 C25        13.6411  -10.3567   21.2915 C.ar      1 UNK         0.0283
     17 C8         19.8041  -13.3098   25.2934 C.ar      1 UNK        -0.2941
     18 C26        12.9051  -11.5528   21.4232 C.ar      1 UNK        -0.1296
     19 C9         21.1138  -12.8171   25.3982 C.ar      1 UNK        -0.0143
     20 C27        11.8942  -11.6572   22.4010 C.ar      1 UNK        -0.1528
     21 C10        22.2000  -13.6406   25.0541 C.ar      1 UNK        -0.2248
     22 C28        11.6200  -10.5698   23.2551 C.ar      1 UNK        -0.0205
     23 C11        21.9704  -14.9618   24.6258 C.ar      1 UNK        -0.0263
     24 C29        12.3724   -9.3839   23.1465 C.ar      1 UNK        -0.0387
     25 C12        20.6532  -15.4491   24.5107 C.ar      1 UNK        -0.2785
     26 C30        13.3735   -9.2784   22.1614 C.ar      1 UNK        -0.0956
     27 H1         18.2473  -11.1607   21.7642 H         1 UNK         0.1118
     28 H21        18.7918  -12.2521   18.9936 H         1 UNK         0.0519
     29 H22        19.5370  -10.8863   19.8145 H         1 UNK         0.0594
     30 H5         18.3784  -15.7341   22.5976 H         1 UNK         0.0558
     31 HN2        16.5623   -9.8919   21.1770 H         1 UNK         0.3742
     32 H31        20.8307  -13.2708   19.6333 H         1 UNK         0.0614
     33 H32        20.9665  -12.2499   21.0595 H         1 UNK         0.0542
     34 HN1        16.5518  -16.8840   23.5090 H         1 UNK         0.4036
     35 H2         15.6837  -15.4790   23.6232 H         1 UNK         0.3557
     36 H3         16.1247  -16.0522   22.1464 H         1 UNK         0.3725
     37 H331       17.4587  -14.4914   25.2462 H         1 UNK         0.1591
     38 H332       18.0854  -16.1036   25.1053 H         1 UNK         0.1639
     39 H241       14.7425   -9.1642   19.9392 H         1 UNK         0.1624
     40 H242       14.4054  -10.7643   19.3193 H         1 UNK         0.1432
     41 H41        20.1632  -14.1035   22.1724 H         1 UNK        -0.0106
     42 H42        19.3599  -14.7477   20.7373 H         1 UNK         0.0579
     43 H8         18.9902  -12.6794   25.5932 H         1 UNK         0.1619
     44 H26        13.1151  -12.3914   20.7737 H         1 UNK         0.1492
     45 H9         21.2718  -11.8120   25.7585 H         1 UNK         0.1218
     46 H27        11.3295  -12.5741   22.5024 H         1 UNK         0.1488
     47 H10        23.2097  -13.2677   25.1383 H         1 UNK         0.1487
     48 H11        22.8078  -15.6009   24.3847 H         1 UNK         0.1212
     49 CL1        12.1062   -8.0755   24.2428 Cl        1 UNK        -0.1312
     50 H12        20.4886  -16.4600   24.1662 H         1 UNK         0.1584
     51 H30        13.9512   -8.3702   22.0898 H         1 UNK         0.1357
     52 H28        10.8471  -10.6549   24.0065 H         1 UNK         0.1113
@<TRIPOS>BOND
     1    1    2 1    
     2    1   14 1    
     3    1    3 am   
     4    2    5 1    
     5    2    7 1    
     6    2   27 1    
     7    3    8 1    
     8    3    4 2    
     9    5    6 2    
    10    5    9 am   
    11    7   10 1    
    12    7   28 1    
    13    7   29 1    
    14    8   11 1    
    15    8   12 1    
    16    8   30 1    
    17    9   13 1    
    18    9   31 1    
    19   10   14 1    
    20   10   32 1    
    21   10   33 1    
    22   11   34 1    
    23   11   35 1    
    24   11   36 1    
    25   12   15 1    
    26   12   37 1    
    27   12   38 1    
    28   13   16 1    
    29   13   39 1    
    30   13   40 1    
    31   14   41 1    
    32   14   42 1    
    33   15   17 ar   
    34   15   25 ar   
    35   16   18 ar   
    36   16   26 ar   
    37   17   19 ar   
    38   17   43 1    
    39   18   20 ar   
    40   18   44 1    
    41   19   21 ar   
    42   19   45 1    
    43   20   22 ar   
    44   20   46 1    
    45   21   23 ar   
    46   21   47 1    
    47   22   24 ar   
    48   22   52 1    
    49   23   25 ar   
    50   23   48 1    
    51   24   26 ar   
    52   24   49 1    
    53   25   50 1    
    54   26   51 1    
@<TRIPOS>SUBSTRUCTURE
@<TRIPOS>MOLECULE
1c
52   54   0
SMALL
NO_CHARGES


@<TRIPOS>ATOM
      1 N1         18.2653  -13.2407   21.7065 N.am      1 UNK         0.0005
      2 C1         18.0666  -11.9445   21.0290 C.3       1 UNK        -0.1997
      3 C14        17.3965  -13.7802   22.5963 C.2       1 UNK         0.3463
      4 O32        16.3982  -13.1682   22.9797 O.2       1 UNK        -0.5691
      5 C7         16.6625  -11.7536   20.4056 C.2       1 UNK         0.5750
      6 O22        16.1638  -12.6466   19.7188 O.2       1 UNK        -0.5276
      7 C2         19.1633  -11.8944   19.9556 C.3       1 UNK         0.0425
      8 C5         17.6504  -15.1803   23.1883 C.3       1 UNK         0.2170
      9 N23        16.0423  -10.5938   20.6504 N.am      1 UNK        -0.5557
     10 C3         20.2631  -12.8149   20.4461 C.3       1 UNK        -0.2933
     11 N13        16.4087  -15.9683   23.1112 N.4       1 UNK        -0.3676
     12 C33        18.1359  -15.1116   24.6549 C.3       1 UNK        -0.4777
     13 C24        14.7042  -10.2162   20.2151 C.3       1 UNK        -0.0485
     14 C4         19.5455  -13.8412   21.3148 C.3       1 UNK         0.4713
     15 C6         19.5607  -14.6147   24.8273 C.ar      1 UNK         0.3025
     16 C25        13.6411  -10.3567   21.2915 C.ar      1 UNK        -0.1137
     17 C8         19.8041  -13.3098   25.2934 C.ar      1 UNK        -0.2682
     18 C26        12.9051  -11.5528   21.4232 C.ar      1 UNK         0.0146
     19 C9         21.1138  -12.8171   25.3982 C.ar      1 UNK        -0.0504
     20 C27        11.8942  -11.6572   22.4010 C.ar      1 UNK        -0.3014
     21 C10        22.2000  -13.6406   25.0541 C.ar      1 UNK        -0.1813
     22 C28        11.6200  -10.5698   23.2551 C.ar      1 UNK         0.1840
     23 C11        21.9704  -14.9618   24.6258 C.ar      1 UNK        -0.0085
     24 C29        12.3724   -9.3839   23.1465 C.ar      1 UNK        -0.2887
     25 C12        20.6532  -15.4491   24.5107 C.ar      1 UNK        -0.3355
     26 C30        13.3735   -9.2784   22.1614 C.ar      1 UNK         0.1399
     27 H1         18.2474  -11.1609   21.7643 H         1 UNK         0.1321
     28 H21        18.7918  -12.2511   18.9932 H         1 UNK         0.0411
     29 H22        19.5372  -10.8863   19.8161 H         1 UNK         0.0281
     30 H5         18.3783  -15.7341   22.5977 H         1 UNK         0.0779
     31 HN2        16.5633   -9.8924   21.1767 H         1 UNK         0.3688
     32 H31        20.8310  -13.2708   19.6335 H         1 UNK         0.0864
     33 H32        20.9664  -12.2499   21.0597 H         1 UNK         0.0959
     34 HN1        16.5520  -16.8841   23.5090 H         1 UNK         0.3736
     35 H2         15.6838  -15.4791   23.6230 H         1 UNK         0.3227
     36 H3         16.1249  -16.0525   22.1463 H         1 UNK         0.3348
     37 H331       17.4584  -14.4916   25.2462 H         1 UNK         0.1648
     38 H332       18.0854  -16.1037   25.1053 H         1 UNK         0.1762
     39 H241       14.7421   -9.1643   19.9385 H         1 UNK         0.1451
     40 H242       14.4056  -10.7643   19.3193 H         1 UNK         0.1145
     41 H41        20.1632  -14.1033   22.1725 H         1 UNK        -0.1460
     42 H42        19.3600  -14.7478   20.7375 H         1 UNK        -0.1057
     43 H8         18.9902  -12.6797   25.5938 H         1 UNK         0.1530
     44 H26        13.1151  -12.3915   20.7737 H         1 UNK         0.1234
     45 H9         21.2716  -11.8121   25.7589 H         1 UNK         0.1255
     46 H27        11.3297  -12.5742   22.5027 H         1 UNK         0.1733
     47 H10        23.2097  -13.2677   25.1385 H         1 UNK         0.1420
     48 H11        22.8077  -15.6011   24.3849 H         1 UNK         0.1141
     49 BR1        12.0810   -7.9420   24.3576 Br        1 UNK        -0.0673
     50 H12        20.4885  -16.4601   24.1664 H         1 UNK         0.1890
     51 H30        13.9511   -8.3702   22.0911 H         1 UNK         0.0589
     52 H28        10.8478  -10.6541   24.0073 H         1 UNK         0.0712
@<TRIPOS>BOND
     1    1    2 1    
     2    1   14 1    
     3    1    3 am   
     4    2    5 1    
     5    2    7 1    
     6    2   27 1    
     7    3    8 1    
     8    3    4 2    
     9    5    6 2    
    10    5    9 am   
    11    7   10 1    
    12    7   28 1    
    13    7   29 1    
    14    8   11 1    
    15    8   12 1    
    16    8   30 1    
    17    9   13 1    
    18    9   31 1    
    19   10   14 1    
    20   10   32 1    
    21   10   33 1    
    22   11   34 1    
    23   11   35 1    
    24   11   36 1    
    25   12   15 1    
    26   12   37 1    
    27   12   38 1    
    28   13   16 1    
    29   13   39 1    
    30   13   40 1    
    31   14   41 1    
    32   14   42 1    
    33   15   17 ar   
    34   15   25 ar   
    35   16   18 ar   
    36   16   26 ar   
    37   17   19 ar   
    38   17   43 1    
    39   18   20 ar   
    40   18   44 1    
    41   19   21 ar   
    42   19   45 1    
    43   20   22 ar   
    44   20   46 1    
    45   21   23 ar   
    46   21   47 1    
    47   22   24 ar   
    48   22   52 1    
    49   23   25 ar   
    50   23   48 1    
    51   24   26 ar   
    52   24   49 1    
    53   25   50 1    
    54   26   51 1    
@<TRIPOS>SUBSTRUCTURE
@<TRIPOS>MOLECULE
1d
52   54   0
SMALL
NO_CHARGES


@<TRIPOS>ATOM
      1 N1         18.2653  -13.2407   21.7065 N.am      1 UNK        -0.1011
      2 C1         18.0666  -11.9445   21.0290 C.3       1 UNK        -0.5274
      3 C14        17.3965  -13.7802   22.5963 C.2       1 UNK         0.5022
      4 O32        16.3982  -13.1682   22.9797 O.2       1 UNK        -0.6433
      5 C7         16.6625  -11.7536   20.4056 C.2       1 UNK         0.9127
      6 O22        16.1638  -12.6466   19.7188 O.2       1 UNK        -0.7433
      7 C2         19.1633  -11.8944   19.9556 C.3       1 UNK         0.0734
      8 C5         17.6504  -15.1803   23.1883 C.3       1 UNK         0.2200
      9 N23        16.0423  -10.5938   20.6504 N.am      1 UNK        -0.5229
     10 C3         20.2631  -12.8149   20.4461 C.3       1 UNK         0.0471
     11 N13        16.4086  -15.9683   23.1114 N.4       1 UNK        -0.4077
     12 C33        18.1359  -15.1116   24.6549 C.3       1 UNK        -0.4519
     13 C24        14.7042  -10.2162   20.2151 C.3       1 UNK        -0.0283
     14 C4         19.5455  -13.8412   21.3148 C.3       1 UNK         0.0754
     15 C6         19.5607  -14.6147   24.8273 C.ar      1 UNK         0.2772
     16 C25        13.6411  -10.3567   21.2915 C.ar      1 UNK        -0.0846
     17 C8         20.6532  -15.4491   24.5107 C.ar      1 UNK        -0.3062
     18 C26        12.9051  -11.5528   21.4232 C.ar      1 UNK         0.0584
     19 C9         21.9704  -14.9618   24.6258 C.ar      1 UNK        -0.1051
     20 C27        11.8942  -11.6572   22.4010 C.ar      1 UNK        -0.4527
     21 C10        22.2000  -13.6406   25.0541 C.ar      1 UNK        -0.1860
     22 C28        11.6200  -10.5698   23.2551 C.ar      1 UNK         0.2882
     23 C11        21.1138  -12.8171   25.3982 C.ar      1 UNK        -0.0931
     24 C29        12.3724   -9.3839   23.1465 C.ar      1 UNK        -0.4194
     25 C12        19.8041  -13.3098   25.2934 C.ar      1 UNK        -0.2351
     26 C30        13.3735   -9.2784   22.1614 C.ar      1 UNK         0.1313
     27 H1         18.2475  -11.1603   21.7637 H         1 UNK         0.2221
     28 H21        18.7920  -12.2530   18.9939 H         1 UNK         0.0272
     29 H22        19.5366  -10.8863   19.8130 H         1 UNK         0.0384
     30 H5         18.3786  -15.7336   22.5974 H         1 UNK         0.0731
     31 HN2        16.5611   -9.8914   21.1771 H         1 UNK         0.3678
     32 H31        20.8305  -13.2708   19.6332 H         1 UNK         0.0223
     33 H32        20.9665  -12.2498   21.0595 H         1 UNK         0.0213
     34 HN1        16.5518  -16.8840   23.5092 H         1 UNK         0.3998
     35 H2         15.6837  -15.4790   23.6231 H         1 UNK         0.3589
     36 H3         16.1247  -16.0524   22.1465 H         1 UNK         0.3662
     37 H331       17.4589  -14.4910   25.2460 H         1 UNK         0.1454
     38 H332       18.0851  -16.1036   25.1055 H         1 UNK         0.1638
     39 H241       14.7426   -9.1636   19.9420 H         1 UNK         0.1124
     40 H242       14.4050  -10.7630   19.3187 H         1 UNK         0.0859
     41 H41        20.1633  -14.1036   22.1722 H         1 UNK         0.0371
     42 H42        19.3597  -14.7476   20.7373 H         1 UNK         0.0277
     43 H8         20.4889  -16.4620   24.1718 H         1 UNK         0.1820
     44 H26        13.1157  -12.3916   20.7743 H         1 UNK         0.1319
     45 H9         22.8079  -15.6007   24.3845 H         1 UNK         0.1452
     46 H27        11.3303  -12.5744   22.5032 H         1 UNK         0.2155
     47 H10        23.2093  -13.2657   25.1322 H         1 UNK         0.1508
     48 H11        21.2712  -11.8096   25.7520 H         1 UNK         0.1403
     49 I1         12.0628   -7.8035   24.4833 I         1 UNK         0.0069
     50 H12        18.9903  -12.6790   25.5925 H         1 UNK         0.1485
     51 H30        13.9531   -8.3711   22.0917 H         1 UNK         0.0905
     52 H28        10.8486  -10.6559   24.0080 H         1 UNK         0.0411
@<TRIPOS>BOND
     1    1    2 1    
     2    1   14 1    
     3    1    3 am   
     4    2    5 1    
     5    2    7 1    
     6    2   27 1    
     7    3    8 1    
     8    3    4 2    
     9    5    6 2    
    10    5    9 am   
    11    7   10 1    
    12    7   28 1    
    13    7   29 1    
    14    8   11 1    
    15    8   12 1    
    16    8   30 1    
    17    9   13 1    
    18    9   31 1    
    19   10   14 1    
    20   10   32 1    
    21   10   33 1    
    22   11   34 1    
    23   11   35 1    
    24   11   36 1    
    25   12   15 1    
    26   12   37 1    
    27   12   38 1    
    28   13   16 1    
    29   13   39 1    
    30   13   40 1    
    31   14   41 1    
    32   14   42 1    
    33   15   17 ar   
    34   15   25 ar   
    35   16   18 ar   
    36   16   26 ar   
    37   17   19 ar   
    38   17   43 1    
    39   18   20 ar   
    40   18   44 1    
    41   19   21 ar   
    42   19   45 1    
    43   20   22 ar   
    44   20   46 1    
    45   21   23 ar   
    46   21   47 1    
    47   22   24 ar   
    48   22   52 1    
    49   23   25 ar   
    50   23   48 1    
    51   24   26 ar   
    52   24   49 1    
    53   25   50 1    
    54   26   51 1    
@<TRIPOS>SUBSTRUCTURE
@<TRIPOS>MOLECULE
3a
55   57   0
SMALL
NO_CHARGES


@<TRIPOS>ATOM
      1 N1         18.2653  -13.2407   21.7065 N.am      1 UNK        -0.3994
      2 C1         18.0666  -11.9445   21.0290 C.3       1 UNK         0.1262
      3 C14        17.3965  -13.7802   22.5963 C.2       1 UNK         0.4446
      4 O32        16.3982  -13.1682   22.9797 O.2       1 UNK        -0.5174
      5 C7         16.6625  -11.7536   20.4056 C.2       1 UNK         0.5065
      6 O22        16.1638  -12.6466   19.7188 O.2       1 UNK        -0.4530
      7 C2         19.1633  -11.8944   19.9556 C.3       1 UNK        -0.0944
      8 C5         17.6504  -15.1803   23.1883 C.3       1 UNK         0.3598
      9 N23        16.0423  -10.5938   20.6504 N.am      1 UNK        -0.5651
     10 C3         20.2631  -12.8149   20.4461 C.3       1 UNK        -0.1139
     11 N13        16.4071  -15.9664   23.1113 N.4       1 UNK        -0.4651
     12 C33        18.1359  -15.1116   24.6549 C.3       1 UNK        -0.4590
     13 C24        14.7042  -10.2162   20.2151 C.3       1 UNK        -0.0642
     14 C4         19.5455  -13.8412   21.3148 C.3       1 UNK         0.0708
     15 C6         19.5607  -14.6147   24.8273 C.ar      1 UNK         0.2223
     16 C25        13.6411  -10.3567   21.2915 C.ar      1 UNK         0.0208
     17 C8         19.8041  -13.3098   25.2934 C.ar      1 UNK        -0.1815
     18 C26        12.9051  -11.5528   21.4232 C.ar      1 UNK        -0.1871
     19 C9         21.1138  -12.8171   25.3982 C.ar      1 UNK        -0.1113
     20 C27        11.8942  -11.6572   22.4010 C.ar      1 UNK        -0.0921
     21 C10        22.2000  -13.6406   25.0541 C.ar      1 UNK        -0.1576
     22 C28        11.6200  -10.5698   23.2551 C.ar      1 UNK        -0.2462
     23 C11        21.9704  -14.9618   24.6258 C.ar      1 UNK        -0.0772
     24 C29        12.3724   -9.3839   23.1465 C.ar      1 UNK         0.2590
     25 C12        20.6532  -15.4491   24.5107 C.ar      1 UNK        -0.2549
     26 C30        13.3735   -9.2784   22.1614 C.ar      1 UNK        -0.2569
     27 H1         18.2486  -11.1558   21.7591 H         1 UNK         0.0892
     28 H21        18.7950  -12.2604   18.9955 H         1 UNK         0.0537
     29 H22        19.5350  -10.8870   19.8000 H         1 UNK         0.0656
     30 H5         18.3780  -15.7330   22.5961 H         1 UNK         0.0199
     31 HN2        16.5508   -9.8916   21.1853 H         1 UNK         0.3738
     32 H31        20.8259  -13.2709   19.6309 H         1 UNK         0.0731
     33 H32        20.9676  -12.2498   21.0578 H         1 UNK         0.0750
     34 HN1        16.5498  -16.8842   23.5045 H         1 UNK         0.3888
     35 H2         15.6837  -15.4790   23.6273 H         1 UNK         0.3292
     36 H3         16.1201  -16.0453   22.1469 H         1 UNK         0.3520
     37 H331       17.4588  -14.4897   25.2445 H         1 UNK         0.1482
     38 H332       18.0839  -16.1032   25.1059 H         1 UNK         0.1614
     39 H241       14.7346   -9.1758   19.8918 H         1 UNK         0.1462
     40 H242       14.4037  -10.8071   19.3482 H         1 UNK         0.1213
     41 H41        20.1640  -14.1023   22.1710 H         1 UNK         0.0394
     42 H42        19.3596  -14.7477   20.7375 H         1 UNK         0.0576
     43 H8         18.9896  -12.6778   25.5880 H         1 UNK         0.1398
     44 H26        13.1202  -12.3930   20.7785 H         1 UNK         0.1426
     45 H9         21.2711  -11.8105   25.7542 H         1 UNK         0.1354
     46 H27        11.3309  -12.5729   22.5100 H         1 UNK         0.1193
     47 H10        23.2094  -13.2672   25.1370 H         1 UNK         0.1408
     48 H11        22.8076  -15.5999   24.3828 H         1 UNK         0.1288
     49 H12        20.4884  -16.4578   24.1604 H         1 UNK         0.1606
     50 H30        13.9514   -8.3690   22.0842 H         1 UNK         0.1394
     51 H28        10.8399  -10.6598   23.9987 H         1 UNK         0.1540
     52 C13        12.1092   -8.2569   24.1186 C.3       1 UNK        -0.4830
     53 H4         12.5743   -7.3260   23.7958 H         1 UNK         0.1336
     54 H6         11.0366   -8.1047   24.2374 H         1 UNK         0.1379
     55 H7         12.5046   -8.5154   25.0976 H         1 UNK         0.1425
@<TRIPOS>BOND
     1    1    2 1    
     2    1   14 1    
     3    1    3 am   
     4    2    5 1    
     5    2    7 1    
     6    2   27 1    
     7    3    8 1    
     8    3    4 2    
     9    5    6 2    
    10    5    9 am   
    11    7   10 1    
    12    7   28 1    
    13    7   29 1    
    14    8   11 1    
    15    8   12 1    
    16    8   30 1    
    17    9   13 1    
    18    9   31 1    
    19   10   14 1    
    20   10   32 1    
    21   10   33 1    
    22   11   34 1    
    23   11   35 1    
    24   11   36 1    
    25   12   15 1    
    26   12   37 1    
    27   12   38 1    
    28   13   16 1    
    29   13   39 1    
    30   13   40 1    
    31   14   41 1    
    32   14   42 1    
    33   15   17 ar   
    34   15   25 ar   
    35   16   18 ar   
    36   16   26 ar   
    37   17   19 ar   
    38   17   43 1    
    39   18   20 ar   
    40   18   44 1    
    41   19   21 ar   
    42   19   45 1    
    43   20   22 ar   
    44   20   46 1    
    45   21   23 ar   
    46   21   47 1    
    47   22   24 ar   
    48   22   51 1    
    49   23   25 ar   
    50   23   48 1    
    51   24   26 ar   
    52   24   52 1    
    53   25   49 1    
    54   26   50 1    
    55   52   53 1    
    56   52   54 1    
    57   52   55 1    
@<TRIPOS>SUBSTRUCTURE
@<TRIPOS>MOLECULE
3b
58   60   0
SMALL
NO_CHARGES


@<TRIPOS>ATOM
      1 N1         18.2653  -13.2407   21.7065 N.am      1 UNK        -0.3673
      2 C1         18.0666  -11.9445   21.0290 C.3       1 UNK        -0.0899
      3 C14        17.3965  -13.7802   22.5963 C.2       1 UNK         0.4463
      4 O32        16.3982  -13.1682   22.9797 O.2       1 UNK        -0.4641
      5 C7         16.6625  -11.7536   20.4056 C.2       1 UNK         0.7119
      6 O22        16.1638  -12.6466   19.7188 O.2       1 UNK        -0.5421
      7 C2         19.1633  -11.8944   19.9556 C.3       1 UNK        -0.2170
      8 C5         17.6504  -15.1803   23.1883 C.3       1 UNK         0.2095
      9 N23        16.0423  -10.5938   20.6504 N.am      1 UNK        -0.6333
     10 C3         20.2631  -12.8149   20.4461 C.3       1 UNK        -0.0303
     11 N13        16.4083  -15.9676   23.1097 N.4       1 UNK        -0.4492
     12 C33        18.1359  -15.1116   24.6549 C.3       1 UNK        -0.4481
     13 C24        14.7042  -10.2162   20.2151 C.3       1 UNK        -0.0739
     14 C4         19.5455  -13.8412   21.3148 C.3       1 UNK         0.1493
     15 C6         19.5607  -14.6147   24.8273 C.ar      1 UNK         0.2588
     16 C25        13.6411  -10.3567   21.2915 C.ar      1 UNK        -0.0129
     17 C8         19.8041  -13.3098   25.2934 C.ar      1 UNK        -0.2598
     18 C26        13.3735   -9.2784   22.1614 C.ar      1 UNK        -0.2061
     19 C9         21.1138  -12.8171   25.3982 C.ar      1 UNK        -0.0117
     20 C27        12.3724   -9.3839   23.1465 C.ar      1 UNK         0.0981
     21 C10        22.2000  -13.6406   25.0541 C.ar      1 UNK        -0.2391
     22 C28        11.6200  -10.5698   23.2551 C.ar      1 UNK        -0.1837
     23 C11        21.9704  -14.9618   24.6258 C.ar      1 UNK        -0.0176
     24 C29        11.8942  -11.6572   22.4010 C.ar      1 UNK        -0.1286
     25 C12        20.6532  -15.4491   24.5107 C.ar      1 UNK        -0.2758
     26 C30        12.9051  -11.5528   21.4232 C.ar      1 UNK        -0.1285
     27 H1         18.2486  -11.1587   21.7619 H         1 UNK         0.2039
     28 H21        18.7930  -12.2524   18.9932 H         1 UNK         0.0796
     29 H22        19.5380  -10.8874   19.8128 H         1 UNK         0.1090
     30 H5         18.3778  -15.7348   22.5977 H         1 UNK         0.0985
     31 HN2        16.5589   -9.8950   21.1833 H         1 UNK         0.4045
     32 H31        20.8295  -13.2710   19.6328 H         1 UNK         0.0615
     33 H32        20.9667  -12.2500   21.0593 H         1 UNK         0.0512
     34 HN1        16.5516  -16.8852   23.5031 H         1 UNK         0.3976
     35 H2         15.6842  -15.4807   23.6250 H         1 UNK         0.3281
     36 H3         16.1226  -16.0468   22.1449 H         1 UNK         0.3611
     37 H331       17.4578  -14.4918   25.2456 H         1 UNK         0.1575
     38 H332       18.0849  -16.1038   25.1050 H         1 UNK         0.1695
     39 H241       14.7319   -9.1791   19.8804 H         1 UNK         0.1474
     40 H242       14.4070  -10.8155   19.3531 H         1 UNK         0.1279
     41 H41        20.1635  -14.1031   22.1720 H         1 UNK        -0.0176
     42 H42        19.3598  -14.7476   20.7373 H         1 UNK         0.0207
     43 H8         18.9904  -12.6791   25.5929 H         1 UNK         0.1460
     44 H26        13.9691   -8.3819   22.0833 H         1 UNK         0.1476
     45 H9         21.2722  -11.8114   25.7577 H         1 UNK         0.1212
     46 H10        23.2095  -13.2672   25.1379 H         1 UNK         0.1530
     47 H11        22.8077  -15.6008   24.3837 H         1 UNK         0.1204
     48 H29        11.3379  -12.5770   22.5114 H         1 UNK         0.1190
     49 H12        20.4884  -16.4596   24.1648 H         1 UNK         0.1592
     50 H30        13.1212  -12.3939   20.7799 H         1 UNK         0.1257
     51 H28        10.8511  -10.6597   24.0107 H         1 UNK         0.1359
     52 C15        12.0968   -8.3020   24.1851 C.3       1 UNK        -0.1682
     53 H4         12.2396   -8.7705   25.1562 H         1 UNK         0.0651
     54 H6         11.0392   -8.0391   24.1455 H         1 UNK         0.0564
     55 C13        12.9601   -7.0298   24.1225 C.3       1 UNK         0.1017
     56 H7         12.6724   -6.4056   23.2998 H         1 UNK        -0.0374
     57 H13        12.8261   -6.4141   25.0070 H         1 UNK        -0.0008
     58 H14        14.0241   -7.2285   24.0234 H         1 UNK        -0.0404
@<TRIPOS>BOND
     1    1    2 1    
     2    1   14 1    
     3    1    3 am   
     4    2    5 1    
     5    2    7 1    
     6    2   27 1    
     7    3    8 1    
     8    3    4 2    
     9    5    6 2    
    10    5    9 am   
    11    7   10 1    
    12    7   28 1    
    13    7   29 1    
    14    8   11 1    
    15    8   12 1    
    16    8   30 1    
    17    9   13 1    
    18    9   31 1    
    19   10   14 1    
    20   10   32 1    
    21   10   33 1    
    22   11   34 1    
    23   11   35 1    
    24   11   36 1    
    25   12   15 1    
    26   12   37 1    
    27   12   38 1    
    28   13   16 1    
    29   13   39 1    
    30   13   40 1    
    31   14   41 1    
    32   14   42 1    
    33   15   17 ar   
    34   15   25 ar   
    35   16   18 ar   
    36   16   26 ar   
    37   17   19 ar   
    38   17   43 1    
    39   18   20 ar   
    40   18   44 1    
    41   19   21 ar   
    42   19   45 1    
    43   20   22 ar   
    44   20   52 1    
    45   21   23 ar   
    46   21   46 1    
    47   22   24 ar   
    48   22   51 1    
    49   23   25 ar   
    50   23   47 1    
    51   24   26 ar   
    52   24   48 1    
    53   25   49 1    
    54   26   50 1    
    55   52   53 1    
    56   52   54 1    
    57   52   55 1    
    58   55   56 1    
    59   55   57 1    
    60   55   58 1    
@<TRIPOS>SUBSTRUCTURE
@<TRIPOS>MOLECULE
5
52   54   0
SMALL
NO_CHARGES


@<TRIPOS>ATOM
      1 N1         18.2653  -13.2407   21.7065 N.am      1 UNK        -0.2840
      2 C1         18.0666  -11.9445   21.0290 C.3       1 UNK         0.2373
      3 C14        17.3965  -13.7802   22.5963 C.2       1 UNK         0.2981
      4 O32        16.3982  -13.1682   22.9797 O.2       1 UNK        -0.4894
      5 C7         16.6625  -11.7536   20.4056 C.2       1 UNK         0.5661
      6 O22        16.1638  -12.6466   19.7188 O.2       1 UNK        -0.5434
      7 C2         19.1633  -11.8944   19.9556 C.3       1 UNK        -0.3467
      8 C5         17.6504  -15.1803   23.1883 C.3       1 UNK         0.3317
      9 N23        16.0423  -10.5938   20.6504 N.am      1 UNK        -0.6257
     10 C3         20.2631  -12.8149   20.4461 C.3       1 UNK         0.3028
     11 N13        16.4069  -15.9664   23.1128 N.4       1 UNK        -0.5532
     12 C33        18.1359  -15.1116   24.6549 C.3       1 UNK        -0.4585
     13 C24        14.7042  -10.2162   20.2151 C.3       1 UNK         0.0338
     14 C4         19.5455  -13.8412   21.3148 C.3       1 UNK        -0.2523
     15 C6         19.5607  -14.6147   24.8273 C.ar      1 UNK         0.2406
     16 C25        13.6411  -10.3567   21.2915 C.ar      1 UNK        -0.0136
     17 C8         19.8041  -13.3098   25.2934 C.ar      1 UNK        -0.2362
     18 C26        12.9051  -11.5528   21.4232 C.ar      1 UNK        -0.0691
     19 C9         21.1138  -12.8171   25.3982 C.ar      1 UNK        -0.0706
     20 C27        11.8942  -11.6572   22.4010 C.ar      1 UNK        -0.1527
     21 C10        22.2000  -13.6406   25.0541 C.ar      1 UNK        -0.1214
     22 C28        11.6200  -10.5698   23.2551 C.ar      1 UNK        -0.0984
     23 C11        21.9704  -14.9618   24.6258 C.ar      1 UNK        -0.1631
     24 C29        12.3724   -9.3839   23.1465 C.ar      1 UNK        -0.1758
     25 C12        20.6532  -15.4491   24.5107 C.ar      1 UNK        -0.1860
     26 C30        13.3735   -9.2784   22.1614 C.ar      1 UNK        -0.1257
     27 H1         18.2477  -11.1558   21.7593 H         1 UNK         0.0831
     28 H21        18.7958  -12.2625   18.9960 H         1 UNK         0.0953
     29 H22        19.5348  -10.8871   19.7968 H         1 UNK         0.1022
     30 H5         18.3778  -15.7326   22.5955 H         1 UNK         0.0946
     31 HN2        16.5554   -9.8887   21.1774 H         1 UNK         0.3888
     32 H31        20.8241  -13.2710   19.6300 H         1 UNK         0.0034
     33 H32        20.9683  -12.2500   21.0571 H         1 UNK        -0.0544
     34 HN1        16.5509  -16.8845   23.5047 H         1 UNK         0.4129
     35 H2         15.6846  -15.4802   23.6311 H         1 UNK         0.3700
     36 H3         16.1184  -16.0448   22.1488 H         1 UNK         0.4030
     37 H331       17.4589  -14.4897   25.2447 H         1 UNK         0.1643
     38 H332       18.0843  -16.1033   25.1060 H         1 UNK         0.1584
     39 H241       14.7477   -9.1756   19.8951 H         1 UNK         0.1061
     40 H242       14.4016  -10.8011   19.3448 H         1 UNK         0.0771
     41 H41        20.1642  -14.1020   22.1709 H         1 UNK         0.1174
     42 H42        19.3599  -14.7479   20.7375 H         1 UNK         0.1424
     43 H8         18.9896  -12.6776   25.5879 H         1 UNK         0.1489
     44 H26        13.1155  -12.3932   20.7807 H         1 UNK         0.1054
     45 H9         21.2706  -11.8103   25.7540 H         1 UNK         0.1217
     46 H27        11.3281  -12.5706   22.5054 H         1 UNK         0.1192
     47 H10        23.2094  -13.2672   25.1372 H         1 UNK         0.1330
     48 H11        22.8076  -15.6001   24.3822 H         1 UNK         0.1471
     49 H29        12.1743   -8.5578   23.8140 H         1 UNK         0.1333
     50 H12        20.4886  -16.4575   24.1592 H         1 UNK         0.1451
     51 H30        13.9378   -8.3606   22.0805 H         1 UNK         0.1209
     52 H28        10.8338  -10.6416   23.9946 H         1 UNK         0.1162
@<TRIPOS>BOND
     1    1    2 1    
     2    1   14 1    
     3    1    3 am   
     4    2    5 1    
     5    2    7 1    
     6    2   27 1    
     7    3    8 1    
     8    3    4 2    
     9    5    6 2    
    10    5    9 am   
    11    7   10 1    
    12    7   28 1    
    13    7   29 1    
    14    8   11 1    
    15    8   12 1    
    16    8   30 1    
    17    9   13 1    
    18    9   31 1    
    19   10   14 1    
    20   10   32 1    
    21   10   33 1    
    22   11   34 1    
    23   11   35 1    
    24   11   36 1    
    25   12   15 1    
    26   12   37 1    
    27   12   38 1    
    28   13   16 1    
    29   13   39 1    
    30   13   40 1    
    31   14   41 1    
    32   14   42 1    
    33   15   17 ar   
    34   15   25 ar   
    35   16   18 ar   
    36   16   26 ar   
    37   17   19 ar   
    38   17   43 1    
    39   18   20 ar   
    40   18   44 1    
    41   19   21 ar   
    42   19   45 1    
    43   20   22 ar   
    44   20   46 1    
    45   21   23 ar   
    46   21   47 1    
    47   22   24 ar   
    48   22   52 1    
    49   23   25 ar   
    50   23   48 1    
    51   24   26 ar   
    52   24   49 1    
    53   25   50 1    
    54   26   51 1    
@<TRIPOS>SUBSTRUCTURE
@<TRIPOS>MOLECULE
6a
52   54   0
SMALL
NO_CHARGES


@<TRIPOS>ATOM
      1 N1         18.2653  -13.2407   21.7065 N.am      1 UNK        -0.2028
      2 C1         18.0666  -11.9445   21.0290 C.3       1 UNK         0.2142
      3 C14        17.3965  -13.7802   22.5963 C.2       1 UNK         0.2340
      4 O32        16.3982  -13.1682   22.9797 O.2       1 UNK        -0.4509
      5 C7         16.6625  -11.7536   20.4056 C.2       1 UNK         0.5429
      6 O22        16.1638  -12.6466   19.7188 O.2       1 UNK        -0.5758
      7 C2         19.1633  -11.8944   19.9556 C.3       1 UNK        -0.2828
      8 C5         17.6504  -15.1803   23.1883 C.3       1 UNK         0.3105
      9 N23        16.0423  -10.5938   20.6504 N.am      1 UNK        -0.4716
     10 C3         20.2631  -12.8149   20.4461 C.3       1 UNK         0.2243
     11 N13        16.4100  -15.9697   23.1075 N.4       1 UNK        -0.5019
     12 C33        18.1359  -15.1116   24.6549 C.3       1 UNK        -0.4970
     13 C24        14.7042  -10.2162   20.2151 C.3       1 UNK        -0.0979
     14 C4         19.5455  -13.8412   21.3148 C.3       1 UNK        -0.2557
     15 C6         19.5607  -14.6147   24.8273 C.ar      1 UNK         0.2746
     16 C25        13.6411  -10.3567   21.2915 C.ar      1 UNK         0.1093
     17 C8         19.8041  -13.3098   25.2934 C.ar      1 UNK        -0.2329
     18 C26        12.9051  -11.5528   21.4232 C.ar      1 UNK         0.0128
     19 C9         21.1138  -12.8171   25.3982 C.ar      1 UNK        -0.0854
     20 C27        11.8942  -11.6572   22.4010 C.ar      1 UNK        -0.1463
     21 C10        22.2000  -13.6406   25.0541 C.ar      1 UNK        -0.1167
     22 C28        11.6200  -10.5698   23.2551 C.ar      1 UNK        -0.0314
     23 C11        21.9704  -14.9618   24.6258 C.ar      1 UNK        -0.1441
     24 C29        12.3724   -9.3839   23.1465 C.ar      1 UNK        -0.0483
     25 C12        20.6532  -15.4491   24.5107 C.ar      1 UNK        -0.2092
     26 C30        13.3735   -9.2784   22.1614 C.ar      1 UNK        -0.0936
     27 H1         18.2496  -11.1578   21.7602 H         1 UNK         0.0513
     28 H21        18.7934  -12.2445   18.9901 H         1 UNK         0.0741
     29 H22        19.5379  -10.8865   19.8254 H         1 UNK         0.0972
     30 H5         18.3786  -15.7345   22.5985 H         1 UNK         0.0963
     31 HN2        16.5691   -9.8938   21.1708 H         1 UNK         0.3463
     32 H31        20.8316  -13.2707   19.6336 H         1 UNK         0.0253
     33 H32        20.9667  -12.2504   21.0597 H         1 UNK        -0.0509
     34 HN1        16.5541  -16.8869   23.5017 H         1 UNK         0.4054
     35 H2         15.6843  -15.4834   23.6210 H         1 UNK         0.3338
     36 H3         16.1264  -16.0501   22.1421 H         1 UNK         0.3984
     37 H331       17.4574  -14.4929   25.2463 H         1 UNK         0.1738
     38 H332       18.0857  -16.1041   25.1044 H         1 UNK         0.1701
     39 H241       14.7446   -9.1622   19.9484 H         1 UNK         0.1309
     40 H242       14.4145  -10.7373   19.3012 H         1 UNK         0.1131
     41 H41        20.1631  -14.1029   22.1725 H         1 UNK         0.1306
     42 H42        19.3603  -14.7477   20.7373 H         1 UNK         0.1439
     43 H8         18.9901  -12.6807   25.5952 H         1 UNK         0.1404
     44 CL1        13.1882  -12.9100   20.3954 Cl        1 UNK        -0.1248
     45 H9         21.2729  -11.8119   25.7591 H         1 UNK         0.1234
     46 H27        11.3258  -12.5725   22.4920 H         1 UNK         0.1575
     47 H10        23.2099  -13.2678   25.1381 H         1 UNK         0.1332
     48 H11        22.8077  -15.6013   24.3852 H         1 UNK         0.1441
     49 CL2        12.1062   -8.0755   24.2428 Cl        1 UNK        -0.1085
     50 H12        20.4884  -16.4603   24.1671 H         1 UNK         0.1495
     51 H30        13.9464   -8.3676   22.0812 H         1 UNK         0.1343
     52 H28        10.8420  -10.6523   24.0016 H         1 UNK         0.1332
@<TRIPOS>BOND
     1    1    2 1    
     2    1   14 1    
     3    1    3 am   
     4    2    5 1    
     5    2    7 1    
     6    2   27 1    
     7    3    8 1    
     8    3    4 2    
     9    5    6 2    
    10    5    9 am   
    11    7   10 1    
    12    7   28 1    
    13    7   29 1    
    14    8   11 1    
    15    8   12 1    
    16    8   30 1    
    17    9   13 1    
    18    9   31 1    
    19   10   14 1    
    20   10   32 1    
    21   10   33 1    
    22   11   34 1    
    23   11   35 1    
    24   11   36 1    
    25   12   15 1    
    26   12   37 1    
    27   12   38 1    
    28   13   16 1    
    29   13   39 1    
    30   13   40 1    
    31   14   41 1    
    32   14   42 1    
    33   15   17 ar   
    34   15   25 ar   
    35   16   18 ar   
    36   16   26 ar   
    37   17   19 ar   
    38   17   43 1    
    39   18   20 ar   
    40   18   44 1    
    41   19   21 ar   
    42   19   45 1    
    43   20   22 ar   
    44   20   46 1    
    45   21   23 ar   
    46   21   47 1    
    47   22   24 ar   
    48   22   52 1    
    49   23   25 ar   
    50   23   48 1    
    51   24   26 ar   
    52   24   49 1    
    53   25   50 1    
    54   26   51 1    
@<TRIPOS>SUBSTRUCTURE
@<TRIPOS>MOLECULE
6b
55   57   0
SMALL
NO_CHARGES


@<TRIPOS>ATOM
      1 N1         18.2653  -13.2407   21.7065 N.am      1 UNK        -0.3395
      2 C1         18.0666  -11.9445   21.0290 C.3       1 UNK         0.2778
      3 C14        17.3965  -13.7802   22.5963 C.2       1 UNK         0.3716
      4 O32        16.3982  -13.1682   22.9797 O.2       1 UNK        -0.5429
      5 C7         16.6625  -11.7536   20.4056 C.2       1 UNK         0.5907
      6 O22        16.1638  -12.6466   19.7188 O.2       1 UNK        -0.5849
      7 C2         19.1633  -11.8944   19.9556 C.3       1 UNK        -0.2993
      8 C5         17.6504  -15.1803   23.1883 C.3       1 UNK         0.3183
      9 N23        16.0423  -10.5938   20.6504 N.am      1 UNK        -0.5706
     10 C3         20.2631  -12.8149   20.4461 C.3       1 UNK         0.2633
     11 N13        16.4091  -15.9688   23.1100 N.4       1 UNK        -0.5633
     12 C33        18.1359  -15.1116   24.6549 C.3       1 UNK        -0.4836
     13 C24        14.7042  -10.2162   20.2151 C.3       1 UNK         0.0437
     14 C4         19.5455  -13.8412   21.3148 C.3       1 UNK        -0.2267
     15 C6         19.5607  -14.6147   24.8273 C.ar      1 UNK         0.2715
     16 C25        13.6411  -10.3567   21.2915 C.ar      1 UNK        -0.1302
     17 C8         19.8041  -13.3098   25.2934 C.ar      1 UNK        -0.2533
     18 C26        12.9051  -11.5528   21.4232 C.ar      1 UNK         0.2378
     19 C9         21.1138  -12.8171   25.3982 C.ar      1 UNK        -0.0599
     20 C27        11.8942  -11.6572   22.4010 C.ar      1 UNK        -0.2891
     21 C10        22.2000  -13.6406   25.0541 C.ar      1 UNK        -0.1381
     22 C28        11.6200  -10.5698   23.2551 C.ar      1 UNK        -0.0148
     23 C11        21.9704  -14.9618   24.6258 C.ar      1 UNK        -0.1278
     24 C29        12.3724   -9.3839   23.1465 C.ar      1 UNK        -0.0787
     25 C12        20.6532  -15.4491   24.5107 C.ar      1 UNK        -0.2200
     26 C30        13.3735   -9.2784   22.1614 C.ar      1 UNK        -0.0232
     27 H1         18.2489  -11.1590   21.7618 H         1 UNK         0.0452
     28 H21        18.7931  -12.2469   18.9912 H         1 UNK         0.0812
     29 H22        19.5375  -10.8864   19.8217 H         1 UNK         0.0910
     30 H5         18.3779  -15.7348   22.5978 H         1 UNK         0.1007
     31 HN2        16.5686   -9.8919   21.1687 H         1 UNK         0.3781
     32 H31        20.8313  -13.2707   19.6335 H         1 UNK         0.0099
     33 H32        20.9665  -12.2502   21.0597 H         1 UNK        -0.0509
     34 HN1        16.5528  -16.8850   23.5065 H         1 UNK         0.4175
     35 H2         15.6844  -15.4805   23.6231 H         1 UNK         0.3692
     36 H3         16.1251  -16.0514   22.1450 H         1 UNK         0.4056
     37 H331       17.4577  -14.4928   25.2465 H         1 UNK         0.1668
     38 H332       18.0860  -16.1039   25.1047 H         1 UNK         0.1673
     39 H241       14.7485   -9.1623   19.9463 H         1 UNK         0.1038
     40 H242       14.4176  -10.7350   19.3000 H         1 UNK         0.0875
     41 H41        20.1632  -14.1032   22.1725 H         1 UNK         0.1206
     42 H42        19.3600  -14.7477   20.7374 H         1 UNK         0.1374
     43 H8         18.9905  -12.6799   25.5944 H         1 UNK         0.1542
     44 H9         21.2722  -11.8120   25.7588 H         1 UNK         0.1239
     45 H27        11.3319  -12.5743   22.5132 H         1 UNK         0.1742
     46 H10        23.2097  -13.2676   25.1382 H         1 UNK         0.1360
     47 H11        22.8077  -15.6011   24.3848 H         1 UNK         0.1411
     48 CL1        12.1062   -8.0755   24.2428 Cl        1 UNK        -0.1355
     49 H12        20.4884  -16.4602   24.1670 H         1 UNK         0.1512
     50 H30        13.9544   -8.3725   22.0884 H         1 UNK         0.1153
     51 H28        10.8517  -10.6574   24.0106 H         1 UNK         0.1194
     52 C13        13.1588  -12.7731   20.5597 C.3       1 UNK        -0.4796
     53 H4         12.2935  -13.4360   20.5594 H         1 UNK         0.1218
     54 H6         13.3627  -12.5121   19.5230 H         1 UNK         0.1598
     55 H7         14.0036  -13.3347   20.9573 H         1 UNK         0.1584
@<TRIPOS>BOND
     1    1    2 1    
     2    1   14 1    
     3    1    3 am   
     4    2    5 1    
     5    2    7 1    
     6    2   27 1    
     7    3    8 1    
     8    3    4 2    
     9    5    6 2    
    10    5    9 am   
    11    7   10 1    
    12    7   28 1    
    13    7   29 1    
    14    8   11 1    
    15    8   12 1    
    16    8   30 1    
    17    9   13 1    
    18    9   31 1    
    19   10   14 1    
    20   10   32 1    
    21   10   33 1    
    22   11   34 1    
    23   11   35 1    
    24   11   36 1    
    25   12   15 1    
    26   12   37 1    
    27   12   38 1    
    28   13   16 1    
    29   13   39 1    
    30   13   40 1    
    31   14   41 1    
    32   14   42 1    
    33   15   17 ar   
    34   15   25 ar   
    35   16   18 ar   
    36   16   26 ar   
    37   17   19 ar   
    38   17   43 1    
    39   18   20 ar   
    40   18   52 1    
    41   19   21 ar   
    42   19   44 1    
    43   20   22 ar   
    44   20   45 1    
    45   21   23 ar   
    46   21   46 1    
    47   22   24 ar   
    48   22   51 1    
    49   23   25 ar   
    50   23   47 1    
    51   24   26 ar   
    52   24   48 1    
    53   25   49 1    
    54   26   50 1    
    55   52   53 1    
    56   52   54 1    
    57   52   55 1    
@<TRIPOS>SUBSTRUCTURE
@<TRIPOS>MOLECULE
6e
52   54   0
SMALL
NO_CHARGES


@<TRIPOS>ATOM
      1 N1         18.2653  -13.2407   21.7065 N.am      1 UNK        -0.3425
      2 C1         18.0666  -11.9445   21.0290 C.3       1 UNK         0.0827
      3 C14        17.3965  -13.7802   22.5963 C.2       1 UNK         0.4180
      4 O32        16.3982  -13.1682   22.9797 O.2       1 UNK        -0.5295
      5 C7         16.6625  -11.7536   20.4056 C.2       1 UNK         0.5543
      6 O22        16.1638  -12.6466   19.7188 O.2       1 UNK        -0.4842
      7 C2         19.1633  -11.8944   19.9556 C.3       1 UNK        -0.0925
      8 C5         17.6504  -15.1803   23.1883 C.3       1 UNK         0.3327
      9 N23        16.0423  -10.5938   20.6504 N.am      1 UNK        -0.6577
     10 C3         20.2631  -12.8149   20.4461 C.3       1 UNK        -0.0547
     11 N13        16.4090  -15.9686   23.1088 N.4       1 UNK        -0.5121
     12 C33        18.1359  -15.1116   24.6549 C.3       1 UNK        -0.4641
     13 C24        14.7042  -10.2162   20.2151 C.3       1 UNK        -0.0554
     14 C4         19.5455  -13.8412   21.3148 C.3       1 UNK         0.1051
     15 C6         19.5607  -14.6147   24.8273 C.ar      1 UNK         0.2731
     16 C25        13.6411  -10.3567   21.2915 C.ar      1 UNK        -0.0722
     17 C8         20.6532  -15.4491   24.5107 C.ar      1 UNK        -0.2689
     18 C26        12.9051  -11.5528   21.4232 C.ar      1 UNK         0.2389
     19 C9         21.9704  -14.9618   24.6258 C.ar      1 UNK        -0.0338
     20 C27        11.8942  -11.6572   22.4010 C.ar      1 UNK        -0.2445
     21 C10        22.2000  -13.6406   25.0541 C.ar      1 UNK        -0.2226
     22 C28        11.6200  -10.5698   23.2551 C.ar      1 UNK        -0.0026
     23 C11        21.1138  -12.8171   25.3982 C.ar      1 UNK        -0.0141
     24 C29        12.3724   -9.3839   23.1465 C.ar      1 UNK        -0.0574
     25 C12        19.8041  -13.3098   25.2934 C.ar      1 UNK        -0.2863
     26 C30        13.3735   -9.2784   22.1614 C.ar      1 UNK        -0.0941
     27 H1         18.2491  -11.1578   21.7603 H         1 UNK         0.1081
     28 H21        18.7930  -12.2489   18.9919 H         1 UNK         0.0583
     29 H22        19.5373  -10.8868   19.8188 H         1 UNK         0.0531
     30 H5         18.3784  -15.7341   22.5978 H         1 UNK         0.0595
     31 HN2        16.5679   -9.8912   21.1693 H         1 UNK         0.3861
     32 H31        20.8309  -13.2710   19.6334 H         1 UNK         0.0583
     33 H32        20.9668  -12.2505   21.0596 H         1 UNK         0.0551
     34 HN1        16.5526  -16.8858   23.5032 H         1 UNK         0.4031
     35 H2         15.6839  -15.4815   23.6224 H         1 UNK         0.3475
     36 H3         16.1250  -16.0491   22.1436 H         1 UNK         0.3775
     37 H331       17.4581  -14.4918   25.2459 H         1 UNK         0.1561
     38 H332       18.0852  -16.1038   25.1050 H         1 UNK         0.1623
     39 H241       14.7417   -9.1630   19.9474 H         1 UNK         0.1608
     40 H242       14.4085  -10.7523   19.3110 H         1 UNK         0.1357
     41 H41        20.1633  -14.1033   22.1721 H         1 UNK        -0.0075
     42 H42        19.3600  -14.7475   20.7369 H         1 UNK         0.0542
     43 H8         20.4888  -16.4618   24.1715 H         1 UNK         0.1561
     44 F1         13.1414  -12.5982   20.5967 F         1 UNK        -0.1459
     45 H9         22.8076  -15.6010   24.3846 H         1 UNK         0.1225
     46 H27        11.3210  -12.5699   22.4861 H         1 UNK         0.1914
     47 H10        23.2095  -13.2658   25.1320 H         1 UNK         0.1482
     48 H11        21.2714  -11.8095   25.7522 H         1 UNK         0.1210
     49 CL1        12.1062   -8.0755   24.2428 Cl        1 UNK        -0.1146
     50 H12        18.9900  -12.6800   25.5932 H         1 UNK         0.1597
     51 H30        13.9429   -8.3656   22.0797 H         1 UNK         0.1528
     52 H28        10.8370  -10.6502   23.9966 H         1 UNK         0.1252
@<TRIPOS>BOND
     1    1    2 1    
     2    1   14 1    
     3    1    3 am   
     4    2    5 1    
     5    2    7 1    
     6    2   27 1    
     7    3    8 1    
     8    3    4 2    
     9    5    6 2    
    10    5    9 am   
    11    7   10 1    
    12    7   28 1    
    13    7   29 1    
    14    8   11 1    
    15    8   12 1    
    16    8   30 1    
    17    9   13 1    
    18    9   31 1    
    19   10   14 1    
    20   10   32 1    
    21   10   33 1    
    22   11   34 1    
    23   11   35 1    
    24   11   36 1    
    25   12   15 1    
    26   12   37 1    
    27   12   38 1    
    28   13   16 1    
    29   13   39 1    
    30   13   40 1    
    31   14   41 1    
    32   14   42 1    
    33   15   17 ar   
    34   15   25 ar   
    35   16   18 ar   
    36   16   26 ar   
    37   17   19 ar   
    38   17   43 1    
    39   18   20 ar   
    40   18   44 1    
    41   19   21 ar   
    42   19   45 1    
    43   20   22 ar   
    44   20   46 1    
    45   21   23 ar   
    46   21   47 1    
    47   22   24 ar   
    48   22   52 1    
    49   23   25 ar   
    50   23   48 1    
    51   24   26 ar   
    52   24   49 1    
    53   25   50 1    
    54   26   51 1    
@<TRIPOS>SUBSTRUCTURE
@<TRIPOS>MOLECULE
7a
58   60   0
SMALL
NO_CHARGES


@<TRIPOS>ATOM
      1 N1         18.2653  -13.2407   21.7065 N.am      1 UNK        -0.3795
      2 C1         18.0666  -11.9445   21.0290 C.3       1 UNK         0.3890
      3 C14        17.3965  -13.7802   22.5963 C.2       1 UNK         0.2939
      4 O32        16.3982  -13.1682   22.9797 O.2       1 UNK        -0.4733
      5 C7         16.6625  -11.7536   20.4056 C.2       1 UNK         0.5516
      6 O22        16.1638  -12.6466   19.7188 O.2       1 UNK        -0.5118
      7 C2         19.1633  -11.8944   19.9556 C.3       1 UNK        -0.2577
      8 C5         17.6504  -15.1803   23.1883 C.3       1 UNK         0.4066
      9 N23        16.0423  -10.5938   20.6504 N.am      1 UNK        -0.7453
     10 C3         20.2631  -12.8149   20.4461 C.3       1 UNK         0.1380
     11 N13        16.4072  -15.9666   23.1094 N.4       1 UNK        -0.6049
     12 C33        18.1359  -15.1116   24.6549 C.3       1 UNK        -0.5197
     13 C24        14.7042  -10.2162   20.2151 C.3       1 UNK         0.1261
     14 C4         19.5455  -13.8412   21.3148 C.3       1 UNK        -0.1700
     15 C6         19.5607  -14.6147   24.8273 C.ar      1 UNK         0.3286
     16 C25        13.6411  -10.3567   21.2915 C.ar      1 UNK        -0.1271
     17 C8         19.8041  -13.3098   25.2934 C.ar      1 UNK        -0.3261
     18 C26        12.9051  -11.5528   21.4232 C.ar      1 UNK         0.2404
     19 C9         21.1138  -12.8171   25.3982 C.ar      1 UNK         0.0085
     20 C27        11.8942  -11.6572   22.4010 C.ar      1 UNK        -0.2100
     21 C10        22.2000  -13.6406   25.0541 C.ar      1 UNK        -0.1646
     22 C28        11.6200  -10.5698   23.2551 C.ar      1 UNK        -0.2597
     23 C11        21.9704  -14.9618   24.6258 C.ar      1 UNK        -0.1271
     24 C29        12.3724   -9.3839   23.1465 C.ar      1 UNK         0.3034
     25 C12        20.6532  -15.4491   24.5107 C.ar      1 UNK        -0.2389
     26 C30        13.3735   -9.2784   22.1614 C.ar      1 UNK        -0.3480
     27 H1         18.2513  -11.1515   21.7539 H         1 UNK         0.0166
     28 H21        18.8021  -12.2587   18.9924 H         1 UNK         0.0871
     29 H22        19.5364  -10.8888   19.7992 H         1 UNK         0.0811
     30 H5         18.3767  -15.7340   22.5956 H         1 UNK         0.0760
     31 HN2        16.5684   -9.8849   21.1550 H         1 UNK         0.3696
     32 H31        20.8234  -13.2710   19.6296 H         1 UNK         0.0379
     33 H32        20.9685  -12.2503   21.0569 H         1 UNK        -0.0166
     34 HN1        16.5532  -16.8884   23.4919 H         1 UNK         0.4220
     35 H2         15.6865  -15.4866   23.6359 H         1 UNK         0.3771
     36 H3         16.1147  -16.0357   22.1459 H         1 UNK         0.4120
     37 H331       17.4568  -14.4918   25.2443 H         1 UNK         0.1751
     38 H332       18.0840  -16.1038   25.1046 H         1 UNK         0.1626
     39 H241       14.7495   -9.1676   19.9222 H         1 UNK         0.1022
     40 H242       14.4135  -10.7543   19.3134 H         1 UNK         0.0806
     41 H41        20.1649  -14.1016   22.1701 H         1 UNK         0.1072
     42 H42        19.3600  -14.7477   20.7373 H         1 UNK         0.1323
     43 H8         18.9908  -12.6787   25.5910 H         1 UNK         0.1829
     44 H9         21.2719  -11.8106   25.7557 H         1 UNK         0.0771
     45 H27        11.3289  -12.5714   22.5061 H         1 UNK         0.1561
     46 H10        23.2090  -13.2666   25.1375 H         1 UNK         0.1411
     47 H11        22.8078  -15.5997   24.3817 H         1 UNK         0.1434
     48 H12        20.4884  -16.4577   24.1596 H         1 UNK         0.1533
     49 H30        13.9495   -8.3683   22.0784 H         1 UNK         0.1902
     50 H28        10.8372  -10.6597   23.9962 H         1 UNK         0.1491
     51 C15        13.1588  -12.7731   20.5597 C.3       1 UNK        -0.4983
     52 H4         12.2935  -13.4360   20.5594 H         1 UNK         0.1319
     53 H6         13.3627  -12.5121   19.5230 H         1 UNK         0.1259
     54 H7         14.0036  -13.3347   20.9573 H         1 UNK         0.1712
     55 C13        12.1092   -8.2569   24.1186 C.3       1 UNK        -0.4656
     56 H13        12.5743   -7.3260   23.7958 H         1 UNK         0.1264
     57 H14        11.0366   -8.1047   24.2374 H         1 UNK         0.1310
     58 H15        12.5046   -8.5154   25.0976 H         1 UNK         0.1391
@<TRIPOS>BOND
     1    1    2 1    
     2    1   14 1    
     3    1    3 am   
     4    2    5 1    
     5    2    7 1    
     6    2   27 1    
     7    3    8 1    
     8    3    4 2    
     9    5    6 2    
    10    5    9 am   
    11    7   10 1    
    12    7   28 1    
    13    7   29 1    
    14    8   11 1    
    15    8   12 1    
    16    8   30 1    
    17    9   13 1    
    18    9   31 1    
    19   10   14 1    
    20   10   32 1    
    21   10   33 1    
    22   11   34 1    
    23   11   35 1    
    24   11   36 1    
    25   12   15 1    
    26   12   37 1    
    27   12   38 1    
    28   13   16 1    
    29   13   39 1    
    30   13   40 1    
    31   14   41 1    
    32   14   42 1    
    33   15   17 ar   
    34   15   25 ar   
    35   16   18 ar   
    36   16   26 ar   
    37   17   19 ar   
    38   17   43 1    
    39   18   20 ar   
    40   18   51 1    
    41   19   21 ar   
    42   19   44 1    
    43   20   22 ar   
    44   20   45 1    
    45   21   23 ar   
    46   21   46 1    
    47   22   24 ar   
    48   22   50 1    
    49   23   25 ar   
    50   23   47 1    
    51   24   26 ar   
    52   24   55 1    
    53   25   48 1    
    54   26   49 1    
    55   51   52 1    
    56   51   53 1    
    57   51   54 1    
    58   55   56 1    
    59   55   57 1    
    60   55   58 1    
@<TRIPOS>SUBSTRUCTURE
