@<TRIPOS>MOLECULE
CAT-13f
49   52    1
SMALL
USER_CHARGES


@<TRIPOS>ATOM
      1 C1         11.6820   -2.1707    1.3298 C.3       1 UNK        -0.0090 
      2 N1         12.9759   -2.4302    0.6898 N.am      1 UNK        -0.0184 
      3 C21        14.1857   -2.5033    1.2745 C.cat     1 UNK         0.5687 
      4 N2         14.4361   -2.3451    2.5798 N.pl3     1 UNK        -0.9138 
      5 N3         15.1499   -2.7842    0.3899 N.pl3     1 UNK        -0.5282 
      6 C2         14.6008   -2.9822   -0.9565 C.3       1 UNK         0.3780 
      7 C3         15.1276   -1.9196   -1.9457 C.ar      1 UNK        -0.1150 
      8 C4         15.4911   -2.2559   -3.2691 C.ar      1 UNK        -0.1150 
      9 C5         16.0026   -1.2814   -4.1316 C.ar      1 UNK        -0.1150 
     10 C6         16.0562    0.0656   -3.7342 C.ar      1 UNK        -0.1150 
     11 C7         15.6099    0.4645   -2.4549 C.ar      1 UNK         0.0000 
     12 C8         15.4769    1.9021   -2.1038 C.ar      1 UNK         0.0000 
     13 C9         15.1741    2.8578   -3.1038 C.ar      1 UNK        -0.1150 
     14 C10        14.9081    4.2029   -2.7794 C.ar      1 UNK        -0.1150 
     15 C11        14.9471    4.6239   -1.4406 C.ar      1 UNK        -0.1150 
     16 C12        15.2835    3.7048   -0.4343 C.ar      1 UNK         0.1800 
     17 CL1        15.3415    4.2337    1.2070 Cl        1 UNK        -0.1800 
     18 C13        15.5532    2.3613   -0.7659 C.ar      1 UNK        -0.1150 
     19 C14        15.2059   -0.5552   -1.5583 C.ar      1 UNK        -0.1150 
     20 C15        14.7428   -4.4762   -1.4206 C.3       1 UNK         0.0100 
     21 C16        16.1612   -5.0601   -1.4680 C.3       1 UNK        -0.1200 
     22 C17        15.9595   -6.5662   -1.6403 C.3       1 UNK        -0.1200 
     23 C18        14.6162   -6.8879   -0.9772 C.3       1 UNK        -0.1200 
     24 C19        13.9935   -5.5399   -0.5908 C.3       1 UNK        -0.1200 
     25 C20        13.1177   -2.6879   -0.7028 C.2       1 UNK         0.6225 
     26 O1         12.1860   -2.7189   -1.5139 O.2       1 UNK        -0.5000 
     27 H1         11.3564   -1.1585    1.0940 H         1 UNK         0.0600 
     28 H2         10.9228   -2.8632    0.9660 H         1 UNK         0.0600 
     29 H3         11.7457   -2.2845    2.4102 H         1 UNK         0.0600 
     30 H4         13.7416   -2.0408    3.2608 H         1 UNK         0.4600 
     31 H5         16.1469   -2.7255    0.5931 H         1 UNK         0.3451 
     32 H6         15.3740   -3.2467   -3.6770 H         1 UNK         0.1150 
     33 H7         16.3220   -1.5602   -5.1257 H         1 UNK         0.1150 
     34 H8         16.4275    0.7921   -4.4392 H         1 UNK         0.1150 
     35 H9         15.0902    2.5528   -4.1366 H         1 UNK         0.1150 
     36 H10        14.6449    4.9108   -3.5513 H         1 UNK         0.1150 
     37 H11        14.7188    5.6485   -1.1833 H         1 UNK         0.1150 
     38 H12        15.8148    1.6758    0.0221 H         1 UNK         0.1150 
     39 H13        14.8713   -0.2611   -0.5748 H         1 UNK         0.1150 
     40 H14        14.3249   -4.5496   -2.4257 H         1 UNK         0.0600 
     41 H15        16.7637   -4.6620   -2.2779 H         1 UNK         0.0600 
     42 H16        16.6885   -4.8649   -0.5326 H         1 UNK         0.0600 
     43 H17        15.8994   -6.8074   -2.7026 H         1 UNK         0.0600 
     44 H18        16.7839   -7.1397   -1.2143 H         1 UNK         0.0600 
     45 H19        13.9746   -7.4245   -1.6786 H         1 UNK         0.0600 
     46 H20        14.7420   -7.5264   -0.1015 H         1 UNK         0.0600 
     47 H21        14.1492   -5.3716    0.4762 H         1 UNK         0.0600 
     48 H22        12.9176   -5.5376   -0.7726 H         1 UNK         0.0600 
     49 H23        15.3986   -2.4098    2.9173 H         1 UNK         0.4600 
@<TRIPOS>BOND
     1    1    2 1    
     2    1   27 1    
     3    1   28 1    
     4    1   29 1    
     5    2    3 1    
     6    2   25 am   BACKBONE|DICT|INTERRES
     7    3    4 ar   
     8    3    5 ar   
     9    4   30 1    
    10    4   49 1    
    11    5    6 1    
    12    5   31 1    
    13    6    7 1    
    14    6   20 1    
    15    6   25 1    
    16    7    8 ar   
    17    7   19 ar   
    18    8    9 ar   
    19    8   32 1    
    20    9   10 ar   
    21    9   33 1    
    22   10   11 ar   
    23   10   34 1    
    24   11   12 1    
    25   11   19 ar   
    26   12   13 ar   
    27   12   18 ar   
    28   13   14 ar   
    29   13   35 1    
    30   14   15 ar   
    31   14   36 1    
    32   15   16 ar   
    33   15   37 1    
    34   16   17 1    
    35   16   18 ar   
    36   18   38 1    
    37   19   39 1    
    38   20   21 1    
    39   20   24 1    
    40   20   40 1    
    41   21   22 1    
    42   21   41 1    
    43   21   42 1    
    44   22   23 1    
    45   22   43 1    
    46   22   44 1    
    47   23   24 1    
    48   23   45 1    
    49   23   46 1    
    50   24   47 1    
    51   24   48 1    
    52   25   26 2    
@<TRIPOS>SUBSTRUCTURE
     1 UNK         1 GROUP             0       ****    0 ROOT    
@<TRIPOS>MOLECULE
CAT-13d
43   46    1
SMALL
USER_CHARGES


@<TRIPOS>ATOM
      1 C1         11.6820   -2.1707    1.3298 C.3       1 UNK        -0.0090 
      2 N1         12.9759   -2.4302    0.6898 N.am      1 UNK        -0.0184 
      3 C19        14.1857   -2.5033    1.2745 C.cat     1 UNK         0.5687 
      4 N2         14.4361   -2.3451    2.5798 N.pl3     1 UNK        -0.9138 
      5 N3         15.1499   -2.7842    0.3899 N.pl3     1 UNK        -0.5282 
      6 C2         14.6008   -2.9822   -0.9565 C.3       1 UNK         0.4480 
      7 C3         15.1276   -1.9196   -1.9457 C.ar      1 UNK        -0.1150 
      8 C4         15.4911   -2.2559   -3.2691 C.ar      1 UNK        -0.1150 
      9 C5         16.0026   -1.2814   -4.1316 C.ar      1 UNK        -0.1150 
     10 C6         16.0562    0.0656   -3.7342 C.ar      1 UNK        -0.1150 
     11 C7         15.6099    0.4645   -2.4549 C.ar      1 UNK         0.0000 
     12 C8         15.4769    1.9021   -2.1038 C.ar      1 UNK         0.0000 
     13 C9         15.1741    2.8578   -3.1038 C.ar      1 UNK        -0.1150 
     14 C10        14.9081    4.2029   -2.7794 C.ar      1 UNK        -0.1150 
     15 C11        14.9471    4.6239   -1.4406 C.ar      1 UNK        -0.1150 
     16 C12        15.2835    3.7048   -0.4343 C.ar      1 UNK         0.1800 
     17 CL1        15.3415    4.2337    1.2070 Cl        1 UNK        -0.1800 
     18 C13        15.5532    2.3613   -0.7659 C.ar      1 UNK        -0.1150 
     19 C14        15.2059   -0.5552   -1.5583 C.ar      1 UNK        -0.1150 
     20 C15        14.7974   -4.3874   -1.4430 C.3       1 UNK        -0.0600 
     21 C16        16.0547   -5.1279   -1.0470 C.3       1 UNK        -0.1200 
     22 C17        14.7243   -5.5220   -0.4464 C.3       1 UNK        -0.1200 
     23 C18        13.1177   -2.6879   -0.7028 C.2       1 UNK         0.6225 
     24 O1         12.1860   -2.7189   -1.5139 O.2       1 UNK        -0.5000 
     25 H1         10.9228   -2.8632    0.9660 H         1 UNK         0.0600 
     26 H2         11.7457   -2.2845    2.4102 H         1 UNK         0.0600 
     27 H3         11.3564   -1.1585    1.0940 H         1 UNK         0.0600 
     28 H4         15.3986   -2.4098    2.9173 H         1 UNK         0.4600 
     29 H5         16.1414   -2.8775    0.6201 H         1 UNK         0.3451 
     30 H6         15.3757   -3.2558   -3.6616 H         1 UNK         0.1150 
     31 H7         16.3380   -1.5603   -5.1213 H         1 UNK         0.1150 
     32 H8         16.4431    0.7905   -4.4331 H         1 UNK         0.1150 
     33 H9         15.0963    2.5528   -4.1371 H         1 UNK         0.1150 
     34 H10        14.6469    4.9106   -3.5524 H         1 UNK         0.1150 
     35 H11        14.7173    5.6482   -1.1832 H         1 UNK         0.1150 
     36 H12        15.8162    1.6773    0.0234 H         1 UNK         0.1150 
     37 H13        14.8966   -0.2676   -0.5652 H         1 UNK         0.1150 
     38 H14        14.4459   -4.5071   -2.4646 H         1 UNK         0.0600 
     39 H15        16.4876   -5.8055   -1.7805 H         1 UNK         0.0600 
     40 H16        16.7728   -4.6409   -0.3905 H         1 UNK         0.0600 
     41 H17        14.5744   -5.2858    0.6005 H         1 UNK         0.0600 
     42 H18        14.2693   -6.4538   -0.7784 H         1 UNK         0.0600 
     43 H19        13.7416   -2.0408    3.2608 H         1 UNK         0.4600 
@<TRIPOS>BOND
     1    1    2 1    
     2    1   25 1    
     3    1   26 1    
     4    1   27 1    
     5    2    3 1    
     6    2   23 am   BACKBONE|DICT|INTERRES
     7    3    4 ar   
     8    3    5 ar   
     9    4   28 1    
    10    4   43 1    
    11    5    6 1    
    12    5   29 1    
    13    6    7 1    
    14    6   20 1    
    15    6   23 1    
    16    7    8 ar   
    17    7   19 ar   
    18    8    9 ar   
    19    8   30 1    
    20    9   10 ar   
    21    9   31 1    
    22   10   11 ar   
    23   10   32 1    
    24   11   12 1    
    25   11   19 ar   
    26   12   13 ar   
    27   12   18 ar   
    28   13   14 ar   
    29   13   33 1    
    30   14   15 ar   
    31   14   34 1    
    32   15   16 ar   
    33   15   35 1    
    34   16   18 ar   
    35   16   17 1    
    36   18   36 1    
    37   19   37 1    
    38   20   21 1    
    39   20   22 1    
    40   20   38 1    
    41   21   22 1    
    42   21   39 1    
    43   21   40 1    
    44   22   41 1    
    45   22   42 1    
    46   23   24 2    
@<TRIPOS>SUBSTRUCTURE
     1 UNK         1 GROUP             0       ****    0 ROOT    
@<TRIPOS>MOLECULE
CAT-4c
50   53    1
SMALL
USER_CHARGES


@<TRIPOS>ATOM
      1 C1         14.7217    6.2321    0.2272 C.3       1 UNK         0.1100 
      2 O1         14.6513    5.9327   -1.1180 O.3       1 UNK        -0.2850 
      3 C23        14.9471    4.6239   -1.4406 C.ar      1 UNK         0.0850 
      4 C2         15.2835    3.7048   -0.4343 C.ar      1 UNK        -0.1150 
      5 C3         15.5532    2.3613   -0.7659 C.ar      1 UNK        -0.1150 
      6 C4         15.4769    1.9021   -2.1038 C.ar      1 UNK         0.0000 
      7 C5         15.6099    0.4645   -2.4549 C.ar      1 UNK         0.0000 
      8 C6         16.0562    0.0656   -3.7342 C.ar      1 UNK        -0.1150 
      9 C7         16.0026   -1.2814   -4.1316 C.ar      1 UNK        -0.1150 
     10 C8         15.4911   -2.2559   -3.2691 C.ar      1 UNK        -0.1150 
     11 C9         15.1276   -1.9196   -1.9457 C.ar      1 UNK        -0.1150 
     12 C10        14.6008   -2.9822   -0.9565 C.3       1 UNK         0.5630 
     13 C11        14.8601   -4.4483   -1.3759 C.ar      1 UNK        -0.1150 
     14 C12        13.9201   -5.2434   -2.0756 C.ar      1 UNK        -0.1150 
     15 C13        14.2010   -6.5878   -2.3927 C.ar      1 UNK        -0.1150 
     16 C14        15.4382   -7.1531   -2.0424 C.ar      1 UNK        -0.1150 
     17 C15        16.3957   -6.3717   -1.3851 C.ar      1 UNK        -0.1150 
     18 C16        16.0961   -5.0428   -1.0437 C.ar      1 UNK        -0.1150 
     19 N1         15.1499   -2.7842    0.3899 N.pl3     1 UNK        -0.5282 
     20 C17        14.1857   -2.5033    1.2745 C.cat     1 UNK         0.5687 
     21 N2         14.4361   -2.3451    2.5798 N.pl3     1 UNK        -0.9138 
     22 N3         12.9759   -2.4302    0.6898 N.am      1 UNK        -0.0184 
     23 C18        11.6820   -2.1707    1.3298 C.3       1 UNK        -0.0090 
     24 C19        13.1177   -2.6879   -0.7028 C.2       1 UNK         0.6225 
     25 O2         12.1860   -2.7189   -1.5139 O.2       1 UNK        -0.5000 
     26 C20        15.2059   -0.5552   -1.5583 C.ar      1 UNK        -0.1150 
     27 C21        15.1741    2.8578   -3.1038 C.ar      1 UNK        -0.1150 
     28 C22        14.9081    4.2029   -2.7794 C.ar      1 UNK        -0.1150 
     29 H1         14.4727    7.2823    0.3793 H         1 UNK         0.0300 
     30 H2         14.0159    5.6082    0.7757 H         1 UNK         0.0300 
     31 H3         15.7321    6.0421    0.5893 H         1 UNK         0.0300 
     32 H4         15.2645    4.0135    0.6005 H         1 UNK         0.1150 
     33 H5         15.7758    1.6609    0.0235 H         1 UNK         0.1150 
     34 H6         16.4097    0.8060   -4.4329 H         1 UNK         0.1150 
     35 H7         16.3317   -1.5368   -5.1252 H         1 UNK         0.1150 
     36 H8         15.3772   -3.2621   -3.6483 H         1 UNK         0.1150 
     37 H9         12.9644   -4.8475   -2.3745 H         1 UNK         0.1150 
     38 H10        13.4639   -7.1882   -2.9057 H         1 UNK         0.1150 
     39 H11        15.6668   -8.1811   -2.2558 H         1 UNK         0.1150 
     40 H12        17.3554   -6.7907   -1.1159 H         1 UNK         0.1150 
     41 H13        16.8329   -4.4765   -0.5031 H         1 UNK         0.1150 
     42 H14        16.1512   -2.8110    0.5827 H         1 UNK         0.3451 
     43 H15        15.3986   -2.4098    2.9173 H         1 UNK         0.4600 
     44 H16        10.9228   -2.8632    0.9660 H         1 UNK         0.0600 
     45 H17        11.7457   -2.2845    2.4102 H         1 UNK         0.0600 
     46 H18        11.3564   -1.1585    1.0940 H         1 UNK         0.0600 
     47 H19        14.8695   -0.2636   -0.5734 H         1 UNK         0.1150 
     48 H20        15.0570    2.5559   -4.1350 H         1 UNK         0.1150 
     49 H21        14.6316    4.8838   -3.5677 H         1 UNK         0.1150 
     50 H22        13.7416   -2.0408    3.2608 H         1 UNK         0.4600 
@<TRIPOS>BOND
     1    1    2 1    
     2    1   29 1    
     3    1   30 1    
     4    1   31 1    
     5    2    3 1    
     6    3    4 ar   
     7    3   28 ar   
     8    4    5 ar   
     9    4   32 1    
    10    5    6 ar   
    11    5   33 1    
    12    6    7 1    
    13    6   27 ar   
    14    7    8 ar   
    15    7   26 ar   
    16    8    9 ar   
    17    8   34 1    
    18    9   10 ar   
    19    9   35 1    
    20   10   11 ar   
    21   10   36 1    
    22   11   12 1    
    23   11   26 ar   
    24   12   13 1    
    25   12   19 1    
    26   12   24 1    
    27   13   14 ar   
    28   13   18 ar   
    29   14   15 ar   
    30   14   37 1    
    31   15   16 ar   
    32   15   38 1    
    33   16   17 ar   
    34   16   39 1    
    35   17   18 ar   
    36   17   40 1    
    37   18   41 1    
    38   19   20 ar   
    39   19   42 1    
    40   20   21 ar   
    41   20   22 1    
    42   21   43 1    
    43   21   50 1    
    44   22   23 1    
    45   22   24 am   BACKBONE|DICT|INTERRES
    46   23   44 1    
    47   23   45 1    
    48   23   46 1    
    49   24   25 2    
    50   26   47 1    
    51   27   28 ar   
    52   27   48 1    
    53   28   49 1    
@<TRIPOS>SUBSTRUCTURE
     1 UNK         1 GROUP             0       ****    0 ROOT    
@<TRIPOS>MOLECULE
CAT-13b
42   44    1
SMALL
USER_CHARGES


@<TRIPOS>ATOM
      1 C1         14.1077   -5.3398   -0.5111 C.3       1 UNK        -0.1800 
      2 C18        14.7972   -4.3875   -1.4426 C.3       1 UNK        -0.0500 
      3 C2         14.6008   -2.9822   -0.9565 C.3       1 UNK         0.3780 
      4 C3         15.1276   -1.9196   -1.9457 C.ar      1 UNK        -0.1150 
      5 C4         15.4911   -2.2559   -3.2691 C.ar      1 UNK        -0.1150 
      6 C5         16.0026   -1.2814   -4.1316 C.ar      1 UNK        -0.1150 
      7 C6         16.0562    0.0656   -3.7342 C.ar      1 UNK        -0.1150 
      8 C7         15.6099    0.4645   -2.4549 C.ar      1 UNK         0.0000 
      9 C8         15.4769    1.9021   -2.1038 C.ar      1 UNK         0.0000 
     10 C9         15.1741    2.8578   -3.1038 C.ar      1 UNK        -0.1150 
     11 C10        14.9081    4.2029   -2.7794 C.ar      1 UNK        -0.1150 
     12 C11        14.9471    4.6239   -1.4406 C.ar      1 UNK        -0.1150 
     13 C12        15.2835    3.7048   -0.4343 C.ar      1 UNK         0.1800 
     14 CL1        15.3415    4.2337    1.2070 Cl        1 UNK        -0.1800 
     15 C13        15.5532    2.3613   -0.7659 C.ar      1 UNK        -0.1150 
     16 C14        15.2059   -0.5552   -1.5583 C.ar      1 UNK        -0.1150 
     17 N1         15.1499   -2.7842    0.3899 N.pl3     1 UNK        -0.5282 
     18 C15        14.1857   -2.5033    1.2745 C.cat     1 UNK         0.5687 
     19 N2         14.4361   -2.3451    2.5798 N.pl3     1 UNK        -0.9138 
     20 N3         12.9759   -2.4302    0.6898 N.am      1 UNK        -0.0184 
     21 C16        11.6820   -2.1707    1.3298 C.3       1 UNK        -0.0090 
     22 C17        13.1177   -2.6879   -0.7028 C.2       1 UNK         0.6225 
     23 O1         12.1860   -2.7189   -1.5139 O.2       1 UNK        -0.5000 
     24 H1         14.2504   -6.3610   -0.8643 H         1 UNK         0.0600 
     25 H2         14.5293   -5.2390    0.4890 H         1 UNK         0.0600 
     26 H3         13.0423   -5.1113   -0.4810 H         1 UNK         0.0600 
     27 H4         14.3756   -4.4883   -2.4427 H         1 UNK         0.0600 
     28 H5         15.8625   -4.6161   -1.4727 H         1 UNK         0.0600 
     29 H6         15.3829   -3.2518   -3.6667 H         1 UNK         0.1150 
     30 H7         16.3459   -1.5615   -5.1184 H         1 UNK         0.1150 
     31 H8         16.4541    0.7904   -4.4264 H         1 UNK         0.1150 
     32 H9         15.0992    2.5527   -4.1374 H         1 UNK         0.1150 
     33 H10        14.6488    4.9109   -3.5528 H         1 UNK         0.1150 
     34 H11        14.7172    5.6482   -1.1833 H         1 UNK         0.1150 
     35 H12        15.8181    1.6769    0.0225 H         1 UNK         0.1150 
     36 H13        14.8972   -0.2667   -0.5653 H         1 UNK         0.1150 
     37 H14        16.1471   -2.8869    0.5914 H         1 UNK         0.3451 
     38 H15        15.3986   -2.4098    2.9173 H         1 UNK         0.4600 
     39 H16        10.9228   -2.8632    0.9660 H         1 UNK         0.0600 
     40 H17        11.7457   -2.2845    2.4102 H         1 UNK         0.0600 
     41 H18        11.3564   -1.1585    1.0940 H         1 UNK         0.0600 
     42 H19        13.7416   -2.0408    3.2608 H         1 UNK         0.4600 
@<TRIPOS>BOND
     1    1    2 1    
     2    1   24 1    
     3    1   25 1    
     4    1   26 1    
     5    2    3 1    
     6    2   27 1    
     7    2   28 1    
     8    3    4 1    
     9    3   17 1    
    10    3   22 1    
    11    4    5 ar   
    12    4   16 ar   
    13    5    6 ar   
    14    5   29 1    
    15    6    7 ar   
    16    6   30 1    
    17    7    8 ar   
    18    7   31 1    
    19    8    9 1    
    20    8   16 ar   
    21    9   10 ar   
    22    9   15 ar   
    23   10   11 ar   
    24   10   32 1    
    25   11   12 ar   
    26   11   33 1    
    27   12   13 ar   
    28   12   34 1    
    29   13   14 1    
    30   13   15 ar   
    31   15   35 1    
    32   16   36 1    
    33   17   18 ar   
    34   17   37 1    
    35   18   19 ar   
    36   18   20 1    
    37   19   38 1    
    38   19   42 1    
    39   20   21 1    
    40   20   22 am   BACKBONE|DICT|INTERRES
    41   21   39 1    
    42   21   40 1    
    43   21   41 1    
    44   22   23 2    
@<TRIPOS>SUBSTRUCTURE
     1 UNK         1 GROUP             0       ****    0 ROOT    
@<TRIPOS>MOLECULE
CAT-4l
44   47    1
SMALL
USER_CHARGES


@<TRIPOS>ATOM
      1 C1         11.6820   -2.1707    1.3298 C.3       1 UNK        -0.0090 
      2 N1         12.9759   -2.4302    0.6898 N.am      1 UNK        -0.0184 
      3 C20        14.1857   -2.5033    1.2745 C.cat     1 UNK         0.5687 
      4 N2         14.4361   -2.3451    2.5798 N.pl3     1 UNK        -0.9138 
      5 N3         15.1499   -2.7842    0.3899 N.pl3     1 UNK        -0.5282 
      6 C2         14.6008   -2.9822   -0.9565 C.3       1 UNK         0.5630 
      7 C3         14.8601   -4.4483   -1.3759 C.ar      1 UNK        -0.1150 
      8 C4         13.9201   -5.2434   -2.0756 C.ar      1 UNK        -0.1150 
      9 C5         14.2010   -6.5878   -2.3927 C.ar      1 UNK        -0.1150 
     10 C6         15.4382   -7.1531   -2.0424 C.ar      1 UNK        -0.1150 
     11 C7         16.3957   -6.3717   -1.3851 C.ar      1 UNK        -0.1150 
     12 C8         16.0961   -5.0428   -1.0437 C.ar      1 UNK        -0.1150 
     13 C9         15.1276   -1.9196   -1.9457 C.ar      1 UNK        -0.1150 
     14 C10        15.4911   -2.2559   -3.2691 C.ar      1 UNK        -0.1150 
     15 C11        16.0026   -1.2814   -4.1316 C.ar      1 UNK        -0.1150 
     16 C12        16.0562    0.0656   -3.7342 C.ar      1 UNK        -0.1150 
     17 C13        15.6099    0.4645   -2.4549 C.ar      1 UNK         0.0000 
     18 C14        15.4769    1.9021   -2.1038 C.ar      1 UNK         0.2340 
     19 C15        15.5532    2.3613   -0.7659 C.ar      1 UNK         0.1920 
     20 N4         15.2835    3.7048   -0.4343 N.ar      1 UNK        -0.4680 
     21 C16        14.9471    4.6239   -1.4406 C.ar      1 UNK         0.1920 
     22 C17        14.9081    4.2029   -2.7794 C.ar      1 UNK         0.1920 
     23 N5         15.1741    2.8578   -3.1038 N.ar      1 UNK        -0.4680 
     24 C18        15.2059   -0.5552   -1.5583 C.ar      1 UNK        -0.1150 
     25 C19        13.1177   -2.6879   -0.7028 C.2       1 UNK         0.6225 
     26 O1         12.1860   -2.7189   -1.5139 O.2       1 UNK        -0.5000 
     27 H1         10.9228   -2.8632    0.9660 H         1 UNK         0.0600 
     28 H2         11.7457   -2.2845    2.4102 H         1 UNK         0.0600 
     29 H3         11.3564   -1.1585    1.0940 H         1 UNK         0.0600 
     30 H4         15.3986   -2.4098    2.9173 H         1 UNK         0.4600 
     31 H5         16.1406   -2.8639    0.6192 H         1 UNK         0.3451 
     32 H6         12.9614   -4.8481   -2.3592 H         1 UNK         0.1150 
     33 H7         13.4641   -7.1922   -2.8995 H         1 UNK         0.1150 
     34 H8         15.6557   -8.1849   -2.2577 H         1 UNK         0.1150 
     35 H9         17.3552   -6.7918   -1.1170 H         1 UNK         0.1150 
     36 H10        16.8298   -4.4823   -0.4947 H         1 UNK         0.1150 
     37 H11        15.3760   -3.2623   -3.6495 H         1 UNK         0.1150 
     38 H12        16.3472   -1.5570   -5.1188 H         1 UNK         0.1150 
     39 H13        16.4422    0.8023   -4.4239 H         1 UNK         0.1150 
     40 H14        15.8246    1.6925    0.0307 H         1 UNK         0.0420 
     41 H15        14.7350    5.6363   -1.1300 H         1 UNK         0.0420 
     42 H16        14.6521    4.9038   -3.5574 H         1 UNK         0.0420 
     43 H17        14.9046   -0.2764   -0.5602 H         1 UNK         0.1150 
     44 H18        13.7416   -2.0408    3.2608 H         1 UNK         0.4600 
@<TRIPOS>BOND
     1    1    2 1    
     2    1   27 1    
     3    1   28 1    
     4    1   29 1    
     5    2    3 1    
     6    2   25 am   BACKBONE|DICT|INTERRES
     7    3    4 ar   
     8    3    5 ar   
     9    4   30 1    
    10    4   44 1    
    11    5    6 1    
    12    5   31 1    
    13    6    7 1    
    14    6   13 1    
    15    6   25 1    
    16    7    8 ar   
    17    7   12 ar   
    18    8    9 ar   
    19    8   32 1    
    20    9   10 ar   
    21    9   33 1    
    22   10   11 ar   
    23   10   34 1    
    24   11   12 ar   
    25   11   35 1    
    26   12   36 1    
    27   13   14 ar   
    28   13   24 ar   
    29   14   15 ar   
    30   14   37 1    
    31   15   16 ar   
    32   15   38 1    
    33   16   17 ar   
    34   16   39 1    
    35   17   18 1    
    36   17   24 ar   
    37   18   19 ar   
    38   18   23 ar   
    39   19   20 ar   
    40   19   40 1    
    41   20   21 ar   
    42   21   22 ar   
    43   21   41 1    
    44   22   23 ar   
    45   22   42 1    
    46   24   43 1    
    47   25   26 2    
@<TRIPOS>SUBSTRUCTURE
     1 UNK         1 GROUP             0       ****    0 ROOT    
@<TRIPOS>MOLECULE
CAT-13m
44   47    1
SMALL
USER_CHARGES


@<TRIPOS>ATOM
      1 C1         11.6820   -2.1707    1.3298 C.3       1 UNK        -0.0090 
      2 N1         12.9759   -2.4302    0.6898 N.am      1 UNK        -0.0184 
      3 C20        14.1857   -2.5033    1.2745 C.cat     1 UNK         0.5687 
      4 N2         14.4361   -2.3451    2.5798 N.pl3     1 UNK        -0.9138 
      5 N3         15.1499   -2.7842    0.3899 N.pl3     1 UNK        -0.5282 
      6 C2         14.6008   -2.9822   -0.9565 C.3       1 UNK         0.5630 
      7 C3         14.8601   -4.4483   -1.3759 C.ar      1 UNK        -0.6070 
      8 C4         16.0961   -5.0428   -1.0437 C.ar      1 UNK         0.6530 
      9 N4         16.3957   -6.3717   -1.3851 N.ar      1 UNK        -0.8390 
     10 C5         15.4382   -7.1531   -2.0424 C.ar      1 UNK         0.8740 
     11 N5         14.2010   -6.5878   -2.3927 N.ar      1 UNK        -0.8390 
     12 C6         13.9201   -5.2434   -2.0756 C.ar      1 UNK         0.6530 
     13 C7         15.1276   -1.9196   -1.9457 C.ar      1 UNK        -0.1150 
     14 C8         15.4911   -2.2559   -3.2691 C.ar      1 UNK        -0.1150 
     15 C9         16.0026   -1.2814   -4.1316 C.ar      1 UNK        -0.1150 
     16 C10        16.0562    0.0656   -3.7342 C.ar      1 UNK        -0.1150 
     17 C11        15.6099    0.4645   -2.4549 C.ar      1 UNK         0.0000 
     18 C12        15.4769    1.9021   -2.1038 C.ar      1 UNK         0.0000 
     19 C13        15.1741    2.8578   -3.1038 C.ar      1 UNK        -0.1150 
     20 C14        14.9081    4.2029   -2.7794 C.ar      1 UNK        -0.1150 
     21 C15        14.9471    4.6239   -1.4406 C.ar      1 UNK        -0.1150 
     22 C16        15.2835    3.7048   -0.4343 C.ar      1 UNK         0.1800 
     23 CL1        15.3415    4.2337    1.2070 Cl        1 UNK        -0.1800 
     24 C17        15.5532    2.3613   -0.7659 C.ar      1 UNK        -0.1150 
     25 C18        15.2059   -0.5552   -1.5583 C.ar      1 UNK        -0.1150 
     26 C19        13.1177   -2.6879   -0.7028 C.2       1 UNK         0.6225 
     27 O1         12.1860   -2.7189   -1.5139 O.2       1 UNK        -0.5000 
     28 H1         10.9228   -2.8632    0.9660 H         1 UNK         0.0600 
     29 H2         11.7457   -2.2845    2.4102 H         1 UNK         0.0600 
     30 H3         11.3564   -1.1585    1.0940 H         1 UNK         0.0600 
     31 H4         15.3986   -2.4098    2.9173 H         1 UNK         0.4600 
     32 H5         16.1463   -2.7852    0.6138 H         1 UNK         0.3451 
     33 H6         16.8514   -4.4936   -0.5143 H         1 UNK         0.0110 
     34 H7         15.6719   -8.1925   -2.1915 H         1 UNK        -0.0320 
     35 H8         12.9402   -4.8871   -2.3521 H         1 UNK         0.0110 
     36 H9         15.3794   -3.2467   -3.6789 H         1 UNK         0.1150 
     37 H10        16.3159   -1.5603   -5.1270 H         1 UNK         0.1150 
     38 H11        16.4095    0.7954   -4.4478 H         1 UNK         0.1150 
     39 H12        15.0821    2.5535   -4.1368 H         1 UNK         0.1150 
     40 H13        14.6405    4.9078   -3.5532 H         1 UNK         0.1150 
     41 H14        14.7135    5.6462   -1.1842 H         1 UNK         0.1150 
     42 H15        15.8060    1.6769    0.0269 H         1 UNK         0.1150 
     43 H16        14.8585   -0.2622   -0.5796 H         1 UNK         0.1150 
     44 H17        13.7416   -2.0408    3.2608 H         1 UNK         0.4600 
@<TRIPOS>BOND
     1    1    2 1    
     2    1   28 1    
     3    1   29 1    
     4    1   30 1    
     5    2    3 1    
     6    2   26 am   BACKBONE|DICT|INTERRES
     7    3    4 ar   
     8    3    5 ar   
     9    4   31 1    
    10    4   44 1    
    11    5    6 1    
    12    5   32 1    
    13    6    7 1    
    14    6   13 1    
    15    6   26 1    
    16    7    8 ar   
    17    7   12 ar   
    18    8    9 ar   
    19    8   33 1    
    20    9   10 ar   
    21   10   11 ar   
    22   10   34 1    
    23   11   12 ar   
    24   12   35 1    
    25   13   14 ar   
    26   13   25 ar   
    27   14   15 ar   
    28   14   36 1    
    29   15   16 ar   
    30   15   37 1    
    31   16   17 ar   
    32   16   38 1    
    33   17   18 1    
    34   17   25 ar   
    35   18   19 ar   
    36   18   24 ar   
    37   19   20 ar   
    38   19   39 1    
    39   20   21 ar   
    40   20   40 1    
    41   21   22 ar   
    42   21   41 1    
    43   22   23 1    
    44   22   24 ar   
    45   24   42 1    
    46   25   43 1    
    47   26   27 2    
@<TRIPOS>SUBSTRUCTURE
     1 UNK         1 GROUP             0       ****    0 ROOT    
@<TRIPOS>MOLECULE
CAT-4k
45   48    1
SMALL
USER_CHARGES


@<TRIPOS>ATOM
      1 C1         11.6820   -2.1707    1.3298 C.3       1 UNK        -0.0090 
      2 N1         12.9759   -2.4302    0.6898 N.am      1 UNK        -0.0184 
      3 C21        14.1857   -2.5033    1.2745 C.cat     1 UNK         0.5687 
      4 N2         14.4361   -2.3451    2.5798 N.pl3     1 UNK        -0.9138 
      5 N3         15.1499   -2.7842    0.3899 N.pl3     1 UNK        -0.5282 
      6 C2         14.6008   -2.9822   -0.9565 C.3       1 UNK         0.5630 
      7 C3         14.8601   -4.4483   -1.3759 C.ar      1 UNK        -0.1150 
      8 C4         13.9201   -5.2434   -2.0756 C.ar      1 UNK        -0.1150 
      9 C5         14.2010   -6.5878   -2.3927 C.ar      1 UNK        -0.1150 
     10 C6         15.4382   -7.1531   -2.0424 C.ar      1 UNK        -0.1150 
     11 C7         16.3957   -6.3717   -1.3851 C.ar      1 UNK        -0.1150 
     12 C8         16.0961   -5.0428   -1.0437 C.ar      1 UNK        -0.1150 
     13 C9         15.1276   -1.9196   -1.9457 C.ar      1 UNK        -0.1150 
     14 C10        15.4911   -2.2559   -3.2691 C.ar      1 UNK        -0.1150 
     15 C11        16.0026   -1.2814   -4.1316 C.ar      1 UNK        -0.1150 
     16 C12        16.0562    0.0656   -3.7342 C.ar      1 UNK        -0.1150 
     17 C13        15.6099    0.4645   -2.4549 C.ar      1 UNK         0.0000 
     18 C14        15.4769    1.9021   -2.1038 C.ar      1 UNK         0.2920 
     19 C15        15.1741    2.8578   -3.1038 C.ar      1 UNK        -0.4470 
     20 C16        14.9081    4.2029   -2.7794 C.ar      1 UNK         0.4730 
     21 N4         14.9471    4.6239   -1.4406 N.ar      1 UNK        -0.6780 
     22 C17        15.2835    3.7048   -0.4343 C.ar      1 UNK         0.4730 
     23 C18        15.5532    2.3613   -0.7659 C.ar      1 UNK        -0.4470 
     24 C19        15.2059   -0.5552   -1.5583 C.ar      1 UNK        -0.1150 
     25 C20        13.1177   -2.6879   -0.7028 C.2       1 UNK         0.6225 
     26 O1         12.1860   -2.7189   -1.5139 O.2       1 UNK        -0.5000 
     27 H1         11.3564   -1.1585    1.0940 H         1 UNK         0.0600 
     28 H2         10.9228   -2.8632    0.9660 H         1 UNK         0.0600 
     29 H3         11.7457   -2.2845    2.4102 H         1 UNK         0.0600 
     30 H4         15.3986   -2.4098    2.9173 H         1 UNK         0.4600 
     31 H5         16.1413   -2.8561    0.6181 H         1 UNK         0.3451 
     32 H6         12.9624   -4.8477   -2.3637 H         1 UNK         0.1150 
     33 H7         13.4636   -7.1909   -2.9013 H         1 UNK         0.1150 
     34 H8         15.6579   -8.1840   -2.2576 H         1 UNK         0.1150 
     35 H9         17.3552   -6.7915   -1.1164 H         1 UNK         0.1150 
     36 H10        16.8310   -4.4814   -0.4960 H         1 UNK         0.1150 
     37 H11        15.3822   -3.2631   -3.6489 H         1 UNK         0.1150 
     38 H12        16.3547   -1.5545   -5.1162 H         1 UNK         0.1150 
     39 H13        16.4490    0.7950   -4.4245 H         1 UNK         0.1150 
     40 H14        15.1292    2.5768   -4.1398 H         1 UNK         0.1550 
     41 H15        14.6721    4.9182   -3.5538 H         1 UNK         0.0120 
     42 H16        15.3330    4.1090    0.5643 H         1 UNK         0.0120 
     43 H17        15.8509    1.7003    0.0341 H         1 UNK         0.1550 
     44 H18        14.9151   -0.2744   -0.5575 H         1 UNK         0.1150 
     45 H19        13.7416   -2.0408    3.2608 H         1 UNK         0.4600 
@<TRIPOS>BOND
     1    1    2 1    
     2    1   27 1    
     3    1   28 1    
     4    1   29 1    
     5    2    3 1    
     6    2   25 am   BACKBONE|DICT|INTERRES
     7    3    4 ar   
     8    3    5 ar   
     9    4   30 1    
    10    4   45 1    
    11    5    6 1    
    12    5   31 1    
    13    6    7 1    
    14    6   13 1    
    15    6   25 1    
    16    7    8 ar   
    17    7   12 ar   
    18    8    9 ar   
    19    8   32 1    
    20    9   10 ar   
    21    9   33 1    
    22   10   11 ar   
    23   10   34 1    
    24   11   12 ar   
    25   11   35 1    
    26   12   36 1    
    27   13   14 ar   
    28   13   24 ar   
    29   14   15 ar   
    30   14   37 1    
    31   15   16 ar   
    32   15   38 1    
    33   16   17 ar   
    34   16   39 1    
    35   17   18 1    
    36   17   24 ar   
    37   18   19 ar   
    38   18   23 ar   
    39   19   20 ar   
    40   19   40 1    
    41   20   21 ar   
    42   20   41 1    
    43   21   22 ar   
    44   22   23 ar   
    45   22   42 1    
    46   23   43 1    
    47   24   44 1    
    48   25   26 2    
@<TRIPOS>SUBSTRUCTURE
     1 UNK         1 GROUP             0       ****    0 ROOT    
@<TRIPOS>MOLECULE
CAT-13n
44   47    1
SMALL
USER_CHARGES


@<TRIPOS>ATOM
      1 C1         11.6820   -2.1707    1.3298 C.3       1 UNK        -0.0090 
      2 N1         12.9759   -2.4302    0.6898 N.am      1 UNK        -0.0184 
      3 C20        14.1857   -2.5033    1.2745 C.cat     1 UNK         0.5687 
      4 N2         14.4361   -2.3451    2.5798 N.pl3     1 UNK        -0.9138 
      5 N3         15.1499   -2.7842    0.3899 N.pl3     1 UNK        -0.5282 
      6 C2         14.6008   -2.9822   -0.9565 C.3       1 UNK         0.5630 
      7 C3         15.1276   -1.9196   -1.9457 C.ar      1 UNK        -0.1150 
      8 C4         15.4911   -2.2559   -3.2691 C.ar      1 UNK        -0.1150 
      9 C5         16.0026   -1.2814   -4.1316 C.ar      1 UNK        -0.1150 
     10 C6         16.0562    0.0656   -3.7342 C.ar      1 UNK        -0.1150 
     11 C7         15.6099    0.4645   -2.4549 C.ar      1 UNK         0.0000 
     12 C8         15.4769    1.9021   -2.1038 C.ar      1 UNK         0.0000 
     13 C9         15.1741    2.8578   -3.1038 C.ar      1 UNK        -0.1150 
     14 C10        14.9081    4.2029   -2.7794 C.ar      1 UNK        -0.1150 
     15 C11        14.9471    4.6239   -1.4406 C.ar      1 UNK        -0.1150 
     16 C12        15.2835    3.7048   -0.4343 C.ar      1 UNK         0.1800 
     17 CL1        15.3415    4.2337    1.2070 Cl        1 UNK        -0.1800 
     18 C13        15.5532    2.3613   -0.7659 C.ar      1 UNK        -0.1150 
     19 C14        15.2059   -0.5552   -1.5583 C.ar      1 UNK        -0.1150 
     20 C15        14.8601   -4.4483   -1.3759 C.ar      1 UNK         0.7270 
     21 N4         13.9201   -5.2434   -2.0756 N.ar      1 UNK        -0.8390 
     22 C16        14.2010   -6.5878   -2.3927 C.ar      1 UNK         0.6530 
     23 C17        15.4382   -7.1531   -2.0424 C.ar      1 UNK        -0.6890 
     24 C18        16.3957   -6.3717   -1.3851 C.ar      1 UNK         0.6530 
     25 N5         16.0961   -5.0428   -1.0437 N.ar      1 UNK        -0.8390 
     26 C19        13.1177   -2.6879   -0.7028 C.2       1 UNK         0.6225 
     27 O1         12.1860   -2.7189   -1.5139 O.2       1 UNK        -0.5000 
     28 H1         10.9228   -2.8632    0.9660 H         1 UNK         0.0600 
     29 H2         11.7457   -2.2845    2.4102 H         1 UNK         0.0600 
     30 H3         11.3564   -1.1585    1.0940 H         1 UNK         0.0600 
     31 H4         15.3986   -2.4098    2.9173 H         1 UNK         0.4600 
     32 H5         16.1285   -2.9562    0.6187 H         1 UNK         0.3451 
     33 H6         15.3913   -3.2506   -3.6742 H         1 UNK         0.1150 
     34 H7         16.3231   -1.5694   -5.1218 H         1 UNK         0.1150 
     35 H8         16.4244    0.7919   -4.4423 H         1 UNK         0.1150 
     36 H9         15.0899    2.5525   -4.1362 H         1 UNK         0.1150 
     37 H10        14.6453    4.9089   -3.5537 H         1 UNK         0.1150 
     38 H11        14.7173    5.6482   -1.1834 H         1 UNK         0.1150 
     39 H12        15.8045    1.6783    0.0278 H         1 UNK         0.1150 
     40 H13        14.8660   -0.2668   -0.5759 H         1 UNK         0.1150 
     41 H14        13.4314   -7.1460   -2.9057 H         1 UNK         0.0110 
     42 H15        15.6693   -8.1831   -2.2639 H         1 UNK         0.1970 
     43 H16        17.3631   -6.7659   -1.1195 H         1 UNK         0.0110 
     44 H17        13.7416   -2.0408    3.2608 H         1 UNK         0.4600 
@<TRIPOS>BOND
     1    1    2 1    
     2    1   28 1    
     3    1   29 1    
     4    1   30 1    
     5    2    3 1    
     6    2   26 am   BACKBONE|DICT|INTERRES
     7    3    4 ar   
     8    3    5 ar   
     9    4   31 1    
    10    4   44 1    
    11    5    6 1    
    12    5   32 1    
    13    6    7 1    
    14    6   20 1    
    15    6   26 1    
    16    7    8 ar   
    17    7   19 ar   
    18    8    9 ar   
    19    8   33 1    
    20    9   10 ar   
    21    9   34 1    
    22   10   11 ar   
    23   10   35 1    
    24   11   12 1    
    25   11   19 ar   
    26   12   13 ar   
    27   12   18 ar   
    28   13   14 ar   
    29   13   36 1    
    30   14   15 ar   
    31   14   37 1    
    32   15   16 ar   
    33   15   38 1    
    34   16   17 1    
    35   16   18 ar   
    36   18   39 1    
    37   19   40 1    
    38   20   21 ar   
    39   20   25 ar   
    40   21   22 ar   
    41   22   23 ar   
    42   22   41 1    
    43   23   24 ar   
    44   23   42 1    
    45   24   25 ar   
    46   24   43 1    
    47   26   27 2    
@<TRIPOS>SUBSTRUCTURE
     1 UNK         1 GROUP             0       ****    0 ROOT    
@<TRIPOS>MOLECULE
CAT-13o
42   45    1
SMALL
USER_CHARGES


@<TRIPOS>ATOM
      1 C1         11.6820   -2.1707    1.3298 C.3       1 UNK        -0.0090 
      2 N1         12.9759   -2.4302    0.6898 N.am      1 UNK        -0.0184 
      3 C19        14.1857   -2.5033    1.2745 C.cat     1 UNK         0.5687 
      4 N2         14.4361   -2.3451    2.5798 N.pl3     1 UNK        -0.9138 
      5 N3         15.1499   -2.7842    0.3899 N.pl3     1 UNK        -0.5282 
      6 C2         14.6008   -2.9822   -0.9565 C.3       1 UNK         0.5630 
      7 C3         15.1276   -1.9196   -1.9457 C.ar      1 UNK        -0.1150 
      8 C4         15.4911   -2.2559   -3.2691 C.ar      1 UNK        -0.1150 
      9 C5         16.0026   -1.2814   -4.1316 C.ar      1 UNK        -0.1150 
     10 C6         16.0562    0.0656   -3.7342 C.ar      1 UNK        -0.1150 
     11 C7         15.6099    0.4645   -2.4549 C.ar      1 UNK         0.0000 
     12 C8         15.4769    1.9021   -2.1038 C.ar      1 UNK         0.0000 
     13 C9         15.1741    2.8578   -3.1038 C.ar      1 UNK        -0.1150 
     14 C10        14.9081    4.2029   -2.7794 C.ar      1 UNK        -0.1150 
     15 C11        14.9471    4.6239   -1.4406 C.ar      1 UNK        -0.1150 
     16 C12        15.2835    3.7048   -0.4343 C.ar      1 UNK         0.1800 
     17 CL1        15.3415    4.2337    1.2070 Cl        1 UNK        -0.1800 
     18 C13        15.5532    2.3613   -0.7659 C.ar      1 UNK        -0.1150 
     19 C14        15.2059   -0.5552   -1.5583 C.ar      1 UNK        -0.1150 
     20 C15        14.6906   -4.4777   -1.2756 C.2       1 UNK         0.1859 
     21 N4         13.9192   -5.3943   -0.6573 N.2       1 UNK        -0.4803 
     22 C16        14.2418   -6.7188   -0.9568 C.2       1 UNK         0.1862 
     23 C17        15.3200   -6.8305   -1.7898 C.2       1 UNK        -0.3376 
     24 S1         15.9471   -5.2693   -2.2447 S.3       1 UNK         0.0010 
     25 C18        13.1177   -2.6879   -0.7028 C.2       1 UNK         0.6225 
     26 O1         12.1860   -2.7189   -1.5139 O.2       1 UNK        -0.5000 
     27 H1         10.9228   -2.8632    0.9660 H         1 UNK         0.0600 
     28 H2         11.7457   -2.2845    2.4102 H         1 UNK         0.0600 
     29 H3         11.3564   -1.1585    1.0940 H         1 UNK         0.0600 
     30 H4         15.3986   -2.4098    2.9173 H         1 UNK         0.4600 
     31 H5         16.1414   -2.8610    0.6144 H         1 UNK         0.3451 
     32 H6         15.3759   -3.2438   -3.6812 H         1 UNK         0.1150 
     33 H7         16.3166   -1.5624   -5.1264 H         1 UNK         0.1150 
     34 H8         16.4164    0.7928   -4.4451 H         1 UNK         0.1150 
     35 H9         15.0873    2.5544   -4.1366 H         1 UNK         0.1150 
     36 H10        14.6441    4.9109   -3.5508 H         1 UNK         0.1150 
     37 H11        14.7174    5.6482   -1.1829 H         1 UNK         0.1150 
     38 H12        15.8092    1.6787    0.0261 H         1 UNK         0.1150 
     39 H13        14.8597   -0.2642   -0.5778 H         1 UNK         0.1150 
     40 H14        13.6641   -7.5216   -0.5165 H         1 UNK         0.0981 
     41 H15        15.7710   -7.7373   -2.1598 H         1 UNK         0.2317 
     42 H16        13.7416   -2.0408    3.2608 H         1 UNK         0.4600 
@<TRIPOS>BOND
     1    1    2 1    
     2    1   27 1    
     3    1   28 1    
     4    1   29 1    
     5    2    3 1    
     6    2   25 am   BACKBONE|DICT|INTERRES
     7    3    4 ar   
     8    3    5 ar   
     9    4   30 1    
    10    4   42 1    
    11    5    6 1    
    12    5   31 1    
    13    6    7 1    
    14    6   20 1    
    15    6   25 1    
    16    7    8 ar   
    17    7   19 ar   
    18    8    9 ar   
    19    8   32 1    
    20    9   10 ar   
    21    9   33 1    
    22   10   11 ar   
    23   10   34 1    
    24   11   12 1    
    25   11   19 ar   
    26   12   13 ar   
    27   12   18 ar   
    28   13   14 ar   
    29   13   35 1    
    30   14   15 ar   
    31   14   36 1    
    32   15   16 ar   
    33   15   37 1    
    34   16   17 1    
    35   16   18 ar   
    36   18   38 1    
    37   19   39 1    
    38   20   21 2    
    39   20   24 1    
    40   21   22 1    
    41   22   23 2    
    42   22   40 1    
    43   23   24 1    
    44   23   41 1    
    45   25   26 2    
@<TRIPOS>SUBSTRUCTURE
     1 UNK         1 GROUP             0       ****    0 ROOT    
@<TRIPOS>MOLECULE
CAT-13a
39   41    1
SMALL
USER_CHARGES


@<TRIPOS>ATOM
      1 C1         11.6820   -2.1707    1.3298 C.3       1 UNK        -0.0090 
      2 N1         12.9759   -2.4302    0.6898 N.am      1 UNK        -0.0184 
      3 C17        14.1857   -2.5033    1.2745 C.cat     1 UNK         0.5687 
      4 N2         14.4361   -2.3451    2.5798 N.pl3     1 UNK        -0.9138 
      5 N3         15.1499   -2.7842    0.3899 N.pl3     1 UNK        -0.5282 
      6 C2         14.6008   -2.9822   -0.9565 C.3       1 UNK         0.3780 
      7 C3         14.8185   -4.4450   -1.4007 C.3       1 UNK        -0.1100 
      8 C4         15.1276   -1.9196   -1.9457 C.ar      1 UNK        -0.1150 
      9 C5         15.4911   -2.2559   -3.2691 C.ar      1 UNK        -0.1150 
     10 C6         16.0026   -1.2814   -4.1316 C.ar      1 UNK        -0.1150 
     11 C7         16.0562    0.0656   -3.7342 C.ar      1 UNK        -0.1150 
     12 C8         15.6099    0.4645   -2.4549 C.ar      1 UNK         0.0000 
     13 C9         15.4769    1.9021   -2.1038 C.ar      1 UNK         0.0000 
     14 C10        15.1741    2.8578   -3.1038 C.ar      1 UNK        -0.1150 
     15 C11        14.9081    4.2029   -2.7794 C.ar      1 UNK        -0.1150 
     16 C12        14.9471    4.6239   -1.4406 C.ar      1 UNK        -0.1150 
     17 C13        15.2835    3.7048   -0.4343 C.ar      1 UNK         0.1800 
     18 CL1        15.3415    4.2337    1.2070 Cl        1 UNK        -0.1800 
     19 C14        15.5532    2.3613   -0.7659 C.ar      1 UNK        -0.1150 
     20 C15        15.2059   -0.5552   -1.5583 C.ar      1 UNK        -0.1150 
     21 C16        13.1177   -2.6879   -0.7028 C.2       1 UNK         0.6225 
     22 O1         12.1860   -2.7189   -1.5139 O.2       1 UNK        -0.5000 
     23 H1         11.3564   -1.1585    1.0940 H         1 UNK         0.0600 
     24 H2         10.9228   -2.8632    0.9660 H         1 UNK         0.0600 
     25 H3         11.7457   -2.2845    2.4102 H         1 UNK         0.0600 
     26 H4         15.3986   -2.4098    2.9173 H         1 UNK         0.4600 
     27 H5         16.1485   -2.7776    0.6050 H         1 UNK         0.3451 
     28 H6         15.8718   -4.6472   -1.5986 H         1 UNK         0.0600 
     29 H7         14.4993   -5.1477   -0.6302 H         1 UNK         0.0600 
     30 H8         14.2524   -4.6798   -2.3040 H         1 UNK         0.0600 
     31 H9         15.3720   -3.2525   -3.6682 H         1 UNK         0.1150 
     32 H10        16.3330   -1.5610   -5.1227 H         1 UNK         0.1150 
     33 H11        16.4435    0.7919   -4.4308 H         1 UNK         0.1150 
     34 H12        15.0970    2.5510   -4.1366 H         1 UNK         0.1150 
     35 H13        14.6479    4.9104   -3.5530 H         1 UNK         0.1150 
     36 H14        14.7174    5.6483   -1.1835 H         1 UNK         0.1150 
     37 H15        15.8160    1.6764    0.0231 H         1 UNK         0.1150 
     38 H16        14.8885   -0.2645   -0.5685 H         1 UNK         0.1150 
     39 H17        13.7416   -2.0408    3.2608 H         1 UNK         0.4600 
@<TRIPOS>BOND
     1    1    2 1    
     2    1   23 1    
     3    1   24 1    
     4    1   25 1    
     5    2    3 1    
     6    2   21 am   BACKBONE|DICT|INTERRES
     7    3    4 ar   
     8    3    5 ar   
     9    4   26 1    
    10    4   39 1    
    11    5    6 1    
    12    5   27 1    
    13    6    7 1    
    14    6    8 1    
    15    6   21 1    
    16    7   28 1    
    17    7   29 1    
    18    7   30 1    
    19    8    9 ar   
    20    8   20 ar   
    21    9   10 ar   
    22    9   31 1    
    23   10   11 ar   
    24   10   32 1    
    25   11   12 ar   
    26   11   33 1    
    27   12   13 1    
    28   12   20 ar   
    29   13   14 ar   
    30   13   19 ar   
    31   14   15 ar   
    32   14   34 1    
    33   15   16 ar   
    34   15   35 1    
    35   16   17 ar   
    36   16   36 1    
    37   17   18 1    
    38   17   19 ar   
    39   19   37 1    
    40   20   38 1    
    41   21   22 2    
@<TRIPOS>SUBSTRUCTURE
     1 UNK         1 GROUP             0       ****    0 ROOT    
@<TRIPOS>MOLECULE
CAT-13k
45   48    1
SMALL
USER_CHARGES


@<TRIPOS>ATOM
      1 C1         11.6820   -2.1707    1.3298 C.3       1 UNK        -0.0090 
      2 N1         12.9759   -2.4302    0.6898 N.am      1 UNK        -0.0184 
      3 C21        14.1857   -2.5033    1.2745 C.cat     1 UNK         0.5687 
      4 N2         14.4361   -2.3451    2.5798 N.pl3     1 UNK        -0.9138 
      5 N3         15.1499   -2.7842    0.3899 N.pl3     1 UNK        -0.5282 
      6 C2         14.6008   -2.9822   -0.9565 C.3       1 UNK         0.5630 
      7 C3         14.8601   -4.4483   -1.3759 C.ar      1 UNK        -0.4070 
      8 C4         13.9201   -5.2434   -2.0756 C.ar      1 UNK         0.2270 
      9 C5         14.2010   -6.5878   -2.3927 C.ar      1 UNK        -0.4470 
     10 C6         15.4382   -7.1531   -2.0424 C.ar      1 UNK         0.4730 
     11 N4         16.3957   -6.3717   -1.3851 N.ar      1 UNK        -0.6780 
     12 C7         16.0961   -5.0428   -1.0437 C.ar      1 UNK         0.4730 
     13 C8         15.1276   -1.9196   -1.9457 C.ar      1 UNK        -0.1150 
     14 C9         15.4911   -2.2559   -3.2691 C.ar      1 UNK        -0.1150 
     15 C10        16.0026   -1.2814   -4.1316 C.ar      1 UNK        -0.1150 
     16 C11        16.0562    0.0656   -3.7342 C.ar      1 UNK        -0.1150 
     17 C12        15.6099    0.4645   -2.4549 C.ar      1 UNK         0.0000 
     18 C13        15.4769    1.9021   -2.1038 C.ar      1 UNK         0.0000 
     19 C14        15.1741    2.8578   -3.1038 C.ar      1 UNK        -0.1150 
     20 C15        14.9081    4.2029   -2.7794 C.ar      1 UNK        -0.1150 
     21 C16        14.9471    4.6239   -1.4406 C.ar      1 UNK        -0.1150 
     22 C17        15.2835    3.7048   -0.4343 C.ar      1 UNK         0.1800 
     23 CL1        15.3415    4.2337    1.2070 Cl        1 UNK        -0.1800 
     24 C18        15.5532    2.3613   -0.7659 C.ar      1 UNK        -0.1150 
     25 C19        15.2059   -0.5552   -1.5583 C.ar      1 UNK        -0.1150 
     26 C20        13.1177   -2.6879   -0.7028 C.2       1 UNK         0.6225 
     27 O1         12.1860   -2.7189   -1.5139 O.2       1 UNK        -0.5000 
     28 H1         11.3564   -1.1585    1.0940 H         1 UNK         0.0600 
     29 H2         10.9228   -2.8632    0.9660 H         1 UNK         0.0600 
     30 H3         11.7457   -2.2845    2.4102 H         1 UNK         0.0600 
     31 H4         15.3986   -2.4098    2.9173 H         1 UNK         0.4600 
     32 H5         16.1448   -2.8272    0.6168 H         1 UNK         0.3451 
     33 H6         12.9528   -4.8657   -2.3447 H         1 UNK         0.0650 
     34 H7         13.4785   -7.2042   -2.9041 H         1 UNK         0.1550 
     35 H8         15.6623   -8.1851   -2.2588 H         1 UNK         0.0120 
     36 H9         16.8161   -4.4976   -0.4635 H         1 UNK         0.0120 
     37 H10        15.3714   -3.2590   -3.6545 H         1 UNK         0.1150 
     38 H11        16.3383   -1.5545   -5.1230 H         1 UNK         0.1150 
     39 H12        16.4385    0.7948   -4.4306 H         1 UNK         0.1150 
     40 H13        15.0887    2.5526   -4.1369 H         1 UNK         0.1150 
     41 H14        14.6408    4.9131   -3.5467 H         1 UNK         0.1150 
     42 H15        14.7151    5.6476   -1.1825 H         1 UNK         0.1150 
     43 H16        15.8158    1.6769    0.0224 H         1 UNK         0.1150 
     44 H17        14.8912   -0.2669   -0.5670 H         1 UNK         0.1150 
     45 H18        13.7416   -2.0408    3.2608 H         1 UNK         0.4600 
@<TRIPOS>BOND
     1    1    2 1    
     2    1   28 1    
     3    1   29 1    
     4    1   30 1    
     5    2    3 1    
     6    2   26 am   BACKBONE|DICT|INTERRES
     7    3    4 ar   
     8    3    5 ar   
     9    4   31 1    
    10    4   45 1    
    11    5    6 1    
    12    5   32 1    
    13    6    7 1    
    14    6   13 1    
    15    6   26 1    
    16    7    8 ar   
    17    7   12 ar   
    18    8    9 ar   
    19    8   33 1    
    20    9   10 ar   
    21    9   34 1    
    22   10   11 ar   
    23   10   35 1    
    24   11   12 ar   
    25   12   36 1    
    26   13   14 ar   
    27   13   25 ar   
    28   14   15 ar   
    29   14   37 1    
    30   15   16 ar   
    31   15   38 1    
    32   16   17 ar   
    33   16   39 1    
    34   17   18 1    
    35   17   25 ar   
    36   18   19 ar   
    37   18   24 ar   
    38   19   20 ar   
    39   19   40 1    
    40   20   21 ar   
    41   20   41 1    
    42   21   22 ar   
    43   21   42 1    
    44   22   23 1    
    45   22   24 ar   
    46   24   43 1    
    47   25   44 1    
    48   26   27 2    
@<TRIPOS>SUBSTRUCTURE
     1 UNK         1 GROUP             0       ****    0 ROOT    
@<TRIPOS>MOLECULE
CAT-17a
43   46    1
SMALL
USER_CHARGES


@<TRIPOS>ATOM
      1 C1         11.6820   -2.1707    1.3298 C.3       1 UNK        -0.0090 
      2 N1         12.9759   -2.4302    0.6898 N.am      1 UNK        -0.0184 
      3 C19        14.1857   -2.5033    1.2745 C.cat     1 UNK         0.5687 
      4 N2         14.4361   -2.3451    2.5798 N.pl3     1 UNK        -0.9138 
      5 N3         15.1499   -2.7842    0.3899 N.pl3     1 UNK        -0.5282 
      6 C2         14.6008   -2.9822   -0.9565 C.3       1 UNK         0.4480 
      7 C3         15.1276   -1.9196   -1.9457 C.ar      1 UNK        -0.1150 
      8 C4         15.4911   -2.2559   -3.2691 C.ar      1 UNK        -0.1150 
      9 C5         16.0026   -1.2814   -4.1316 C.ar      1 UNK        -0.1150 
     10 C6         16.0562    0.0656   -3.7342 C.ar      1 UNK        -0.1150 
     11 C7         15.6099    0.4645   -2.4549 C.ar      1 UNK         0.0000 
     12 C8         15.4769    1.9021   -2.1038 C.ar      1 UNK         0.0000 
     13 C9         15.5532    2.3613   -0.7659 C.ar      1 UNK        -0.1150 
     14 C10        15.2835    3.7048   -0.4343 C.ar      1 UNK         0.1800 
     15 CL1        15.3415    4.2337    1.2070 Cl        1 UNK        -0.1800 
     16 C11        14.9471    4.6239   -1.4406 C.ar      1 UNK        -0.1150 
     17 C12        14.9081    4.2029   -2.7794 C.ar      1 UNK         0.1800 
     18 CL2        14.5060    5.3306   -4.0167 Cl        1 UNK        -0.1800 
     19 C13        15.1741    2.8578   -3.1038 C.ar      1 UNK        -0.1150 
     20 C14        15.2059   -0.5552   -1.5583 C.ar      1 UNK        -0.1150 
     21 C15        14.7974   -4.3874   -1.4430 C.3       1 UNK        -0.0600 
     22 C16        16.0547   -5.1279   -1.0470 C.3       1 UNK        -0.1200 
     23 C17        14.7243   -5.5220   -0.4464 C.3       1 UNK        -0.1200 
     24 C18        13.1177   -2.6879   -0.7028 C.2       1 UNK         0.6225 
     25 O1         12.1860   -2.7189   -1.5139 O.2       1 UNK        -0.5000 
     26 H1         10.9228   -2.8632    0.9660 H         1 UNK         0.0600 
     27 H2         11.7457   -2.2845    2.4102 H         1 UNK         0.0600 
     28 H3         11.3564   -1.1585    1.0940 H         1 UNK         0.0600 
     29 H4         15.3986   -2.4098    2.9173 H         1 UNK         0.4600 
     30 H5         16.1343   -2.9239    0.6210 H         1 UNK         0.3451 
     31 H6         15.3939   -3.2383   -3.6884 H         1 UNK         0.1150 
     32 H7         16.3389   -1.5712   -5.1175 H         1 UNK         0.1150 
     33 H8         16.4432    0.7954   -4.4309 H         1 UNK         0.1150 
     34 H9         15.8180    1.6759    0.0236 H         1 UNK         0.1150 
     35 H10        14.7122    5.6501   -1.1889 H         1 UNK         0.1150 
     36 H11        15.1033    2.5510   -4.1373 H         1 UNK         0.1150 
     37 H12        14.8911   -0.2633   -0.5687 H         1 UNK         0.1150 
     38 H13        14.4810   -4.4827   -2.4828 H         1 UNK         0.0600 
     39 H14        16.5049   -5.7829   -1.7924 H         1 UNK         0.0600 
     40 H15        16.7531   -4.6128   -0.4068 H         1 UNK         0.0600 
     41 H16        14.5910   -5.3040    0.5957 H         1 UNK         0.0600 
     42 H17        14.2633   -6.4501   -0.7785 H         1 UNK         0.0600 
     43 H18        13.7416   -2.0408    3.2608 H         1 UNK         0.4600 
@<TRIPOS>BOND
     1    1    2 1    
     2    1   26 1    
     3    1   27 1    
     4    1   28 1    
     5    2    3 1    
     6    2   24 am   BACKBONE|DICT|INTERRES
     7    3    4 ar   
     8    3    5 ar   
     9    4   29 1    
    10    4   43 1    
    11    5    6 1    
    12    5   30 1    
    13    6    7 1    
    14    6   21 1    
    15    6   24 1    
    16    7    8 ar   
    17    7   20 ar   
    18    8    9 ar   
    19    8   31 1    
    20    9   10 ar   
    21    9   32 1    
    22   10   11 ar   
    23   10   33 1    
    24   11   12 1    
    25   11   20 ar   
    26   12   13 ar   
    27   12   19 ar   
    28   13   14 ar   
    29   13   34 1    
    30   14   15 1    
    31   14   16 ar   
    32   16   17 ar   
    33   16   35 1    
    34   17   18 1    
    35   17   19 ar   
    36   19   36 1    
    37   20   37 1    
    38   21   22 1    
    39   21   23 1    
    40   21   38 1    
    41   22   23 1    
    42   22   39 1    
    43   22   40 1    
    44   23   41 1    
    45   23   42 1    
    46   24   25 2    
@<TRIPOS>SUBSTRUCTURE
     1 UNK         1 GROUP             0       ****    0 ROOT    
@<TRIPOS>MOLECULE
CAT-17f
43   46    1
SMALL
USER_CHARGES


@<TRIPOS>ATOM
      1 C1         11.6820   -2.1707    1.3298 C.3       1 UNK        -0.0090 
      2 N1         12.9759   -2.4302    0.6898 N.am      1 UNK        -0.0184 
      3 C19        14.1857   -2.5033    1.2745 C.cat     1 UNK         0.5687 
      4 N2         14.4361   -2.3451    2.5798 N.pl3     1 UNK        -0.9138 
      5 N3         15.1499   -2.7842    0.3899 N.pl3     1 UNK        -0.5282 
      6 C2         14.6008   -2.9822   -0.9565 C.3       1 UNK         0.4480 
      7 C3         15.1276   -1.9196   -1.9457 C.ar      1 UNK        -0.1150 
      8 C4         15.4911   -2.2559   -3.2691 C.ar      1 UNK        -0.1150 
      9 C5         16.0026   -1.2814   -4.1316 C.ar      1 UNK        -0.1150 
     10 C6         16.0562    0.0656   -3.7342 C.ar      1 UNK        -0.1150 
     11 C7         15.6099    0.4645   -2.4549 C.ar      1 UNK         0.0000 
     12 C8         15.4769    1.9021   -2.1038 C.ar      1 UNK        -0.2920 
     13 C9         15.1741    2.8578   -3.1038 C.ar      1 UNK         0.4730 
     14 N4         14.9081    4.2029   -2.7794 N.ar      1 UNK        -0.6780 
     15 C10        14.9471    4.6239   -1.4406 C.ar      1 UNK         0.4730 
     16 C11        15.2835    3.7048   -0.4343 C.ar      1 UNK        -0.2570 
     17 C12        15.3456    4.1329    0.9510 C.1       1 UNK         0.3950 
     18 N5         15.3974    4.4754    2.0532 N.1       1 UNK        -0.4300 
     19 C13        15.5532    2.3613   -0.7659 C.ar      1 UNK         0.2270 
     20 C14        15.2059   -0.5552   -1.5583 C.ar      1 UNK        -0.1150 
     21 C15        14.7974   -4.3874   -1.4430 C.3       1 UNK        -0.0600 
     22 C16        16.0547   -5.1279   -1.0470 C.3       1 UNK        -0.1200 
     23 C17        14.7243   -5.5220   -0.4464 C.3       1 UNK        -0.1200 
     24 C18        13.1177   -2.6879   -0.7028 C.2       1 UNK         0.6225 
     25 O1         12.1860   -2.7189   -1.5139 O.2       1 UNK        -0.5000 
     26 H1         10.9228   -2.8632    0.9660 H         1 UNK         0.0600 
     27 H2         11.7457   -2.2845    2.4102 H         1 UNK         0.0600 
     28 H3         11.3564   -1.1585    1.0940 H         1 UNK         0.0600 
     29 H4         15.3986   -2.4098    2.9173 H         1 UNK         0.4600 
     30 H5         16.1440   -2.8575    0.6169 H         1 UNK         0.3451 
     31 H6         15.3777   -3.2560   -3.6616 H         1 UNK         0.1150 
     32 H7         16.3398   -1.5551   -5.1222 H         1 UNK         0.1150 
     33 H8         16.4411    0.7841   -4.4402 H         1 UNK         0.1150 
     34 H9         15.0974    2.5673   -4.1401 H         1 UNK         0.0120 
     35 H10        14.7122    5.6635   -1.2604 H         1 UNK         0.0120 
     36 H11        15.8277    1.6825    0.0246 H         1 UNK         0.0650 
     37 H12        14.8979   -0.2729   -0.5626 H         1 UNK         0.1150 
     38 H13        14.4427   -4.5090   -2.4640 H         1 UNK         0.0600 
     39 H14        16.4876   -5.8065   -1.7795 H         1 UNK         0.0600 
     40 H15        16.7731   -4.6421   -0.3898 H         1 UNK         0.0600 
     41 H16        14.5722   -5.2857    0.6005 H         1 UNK         0.0600 
     42 H17        14.2698   -6.4539   -0.7786 H         1 UNK         0.0600 
     43 H18        13.7416   -2.0408    3.2608 H         1 UNK         0.4600 
@<TRIPOS>BOND
     1    1    2 1    
     2    1   26 1    
     3    1   27 1    
     4    1   28 1    
     5    2    3 1    
     6    2   24 am   BACKBONE|DICT|INTERRES
     7    3    4 ar   
     8    3    5 ar   
     9    4   29 1    
    10    4   43 1    
    11    5    6 1    
    12    5   30 1    
    13    6    7 1    
    14    6   21 1    
    15    6   24 1    
    16    7    8 ar   
    17    7   20 ar   
    18    8    9 ar   
    19    8   31 1    
    20    9   10 ar   
    21    9   32 1    
    22   10   11 ar   
    23   10   33 1    
    24   11   12 1    
    25   11   20 ar   
    26   12   13 ar   
    27   12   19 ar   
    28   13   14 ar   
    29   13   34 1    
    30   14   15 ar   
    31   15   16 ar   
    32   15   35 1    
    33   16   17 1    
    34   16   19 ar   
    35   17   18 3    
    36   19   36 1    
    37   20   37 1    
    38   21   22 1    
    39   21   23 1    
    40   21   38 1    
    41   22   23 1    
    42   22   39 1    
    43   22   40 1    
    44   23   41 1    
    45   23   42 1    
    46   24   25 2    
@<TRIPOS>SUBSTRUCTURE
     1 UNK         1 GROUP             0       ****    0 ROOT    
@<TRIPOS>MOLECULE
CAT-13i
46   49    1
SMALL
USER_CHARGES


@<TRIPOS>ATOM
      1 C1         11.6820   -2.1707    1.3298 C.3       1 UNK        -0.0090 
      2 N1         12.9759   -2.4302    0.6898 N.am      1 UNK        -0.0184 
      3 C20        14.1857   -2.5033    1.2745 C.cat     1 UNK         0.5687 
      4 N2         14.4361   -2.3451    2.5798 N.pl3     1 UNK        -0.9138 
      5 N3         15.1499   -2.7842    0.3899 N.pl3     1 UNK        -0.5282 
      6 C2         14.6008   -2.9822   -0.9565 C.3       1 UNK         0.3780 
      7 C3         14.7971   -4.3875   -1.4429 C.3       1 UNK        -0.0500 
      8 C4         16.2632   -4.7019   -1.4844 C.3       1 UNK        -0.0600 
      9 C5         16.8069   -5.7712   -0.5641 C.3       1 UNK        -0.1200 
     10 C6         16.7090   -6.0313   -2.0503 C.3       1 UNK        -0.1200 
     11 C7         15.1276   -1.9196   -1.9457 C.ar      1 UNK        -0.1150 
     12 C8         15.4911   -2.2559   -3.2691 C.ar      1 UNK        -0.1150 
     13 C9         16.0026   -1.2814   -4.1316 C.ar      1 UNK        -0.1150 
     14 C10        16.0562    0.0656   -3.7342 C.ar      1 UNK        -0.1150 
     15 C11        15.6099    0.4645   -2.4549 C.ar      1 UNK         0.0000 
     16 C12        15.4769    1.9021   -2.1038 C.ar      1 UNK         0.0000 
     17 C13        15.1741    2.8578   -3.1038 C.ar      1 UNK        -0.1150 
     18 C14        14.9081    4.2029   -2.7794 C.ar      1 UNK        -0.1150 
     19 C15        14.9471    4.6239   -1.4406 C.ar      1 UNK        -0.1150 
     20 C16        15.2835    3.7048   -0.4343 C.ar      1 UNK         0.1800 
     21 CL1        15.3415    4.2337    1.2070 Cl        1 UNK        -0.1800 
     22 C17        15.5532    2.3613   -0.7659 C.ar      1 UNK        -0.1150 
     23 C18        15.2059   -0.5552   -1.5583 C.ar      1 UNK        -0.1150 
     24 C19        13.1177   -2.6879   -0.7028 C.2       1 UNK         0.6225 
     25 O1         12.1860   -2.7189   -1.5139 O.2       1 UNK        -0.5000 
     26 H1         10.9228   -2.8632    0.9660 H         1 UNK         0.0600 
     27 H2         11.7457   -2.2845    2.4102 H         1 UNK         0.0600 
     28 H3         11.3564   -1.1585    1.0940 H         1 UNK         0.0600 
     29 H4         15.3986   -2.4098    2.9173 H         1 UNK         0.4600 
     30 H5         16.1224   -2.9875    0.6280 H         1 UNK         0.3451 
     31 H6         14.3755   -4.4881   -2.4430 H         1 UNK         0.0600 
     32 H7         14.2961   -5.0795   -0.7660 H         1 UNK         0.0600 
     33 H8         16.8705   -3.8154   -1.6796 H         1 UNK         0.0600 
     34 H9         17.7934   -5.6306   -0.1172 H         1 UNK         0.0600 
     35 H10        16.1187   -6.2881    0.1082 H         1 UNK         0.0600 
     36 H11        15.9525   -6.7296   -2.4147 H         1 UNK         0.0600 
     37 H12        17.6272   -6.0721   -2.6401 H         1 UNK         0.0600 
     38 H13        15.3768   -3.2509   -3.6617 H         1 UNK         0.1150 
     39 H14        16.3444   -1.5583   -5.1201 H         1 UNK         0.1150 
     40 H15        16.4477    0.7947   -4.4260 H         1 UNK         0.1150 
     41 H16        15.0956    2.5506   -4.1366 H         1 UNK         0.1150 
     42 H17        14.6457    4.9108   -3.5516 H         1 UNK         0.1150 
     43 H18        14.7159    5.6478   -1.1829 H         1 UNK         0.1150 
     44 H19        15.8129    1.6769    0.0244 H         1 UNK         0.1150 
     45 H20        14.9007   -0.2712   -0.5640 H         1 UNK         0.1150 
     46 H21        13.7416   -2.0408    3.2608 H         1 UNK         0.4600 
@<TRIPOS>BOND
     1    1    2 1    
     2    1   26 1    
     3    1   27 1    
     4    1   28 1    
     5    2    3 1    
     6    2   24 am   BACKBONE|DICT|INTERRES
     7    3    4 ar   
     8    3    5 ar   
     9    4   29 1    
    10    4   46 1    
    11    5    6 1    
    12    5   30 1    
    13    6    7 1    
    14    6   11 1    
    15    6   24 1    
    16    7    8 1    
    17    7   31 1    
    18    7   32 1    
    19    8    9 1    
    20    8   10 1    
    21    8   33 1    
    22    9   10 1    
    23    9   34 1    
    24    9   35 1    
    25   10   36 1    
    26   10   37 1    
    27   11   12 ar   
    28   11   23 ar   
    29   12   13 ar   
    30   12   38 1    
    31   13   14 ar   
    32   13   39 1    
    33   14   15 ar   
    34   14   40 1    
    35   15   16 1    
    36   15   23 ar   
    37   16   17 ar   
    38   16   22 ar   
    39   17   18 ar   
    40   17   41 1    
    41   18   19 ar   
    42   18   42 1    
    43   19   20 ar   
    44   19   43 1    
    45   20   21 1    
    46   20   22 ar   
    47   22   44 1    
    48   23   45 1    
    49   24   25 2    
@<TRIPOS>SUBSTRUCTURE
     1 UNK         1 GROUP             0       ****    0 ROOT    
@<TRIPOS>MOLECULE
CAT-17d
42   45    1
SMALL
USER_CHARGES


@<TRIPOS>ATOM
      1 C1         11.6820   -2.1707    1.3298 C.3       1 UNK        -0.0090 
      2 N1         12.9759   -2.4302    0.6898 N.am      1 UNK        -0.0184 
      3 C18        14.1857   -2.5033    1.2745 C.cat     1 UNK         0.5687 
      4 N2         14.4361   -2.3451    2.5798 N.pl3     1 UNK        -0.9138 
      5 N3         15.1499   -2.7842    0.3899 N.pl3     1 UNK        -0.5282 
      6 C2         14.6008   -2.9822   -0.9565 C.3       1 UNK         0.4480 
      7 C3         15.1276   -1.9196   -1.9457 C.ar      1 UNK        -0.1150 
      8 C4         15.4911   -2.2559   -3.2691 C.ar      1 UNK        -0.1150 
      9 C5         16.0026   -1.2814   -4.1316 C.ar      1 UNK        -0.1150 
     10 C6         16.0562    0.0656   -3.7342 C.ar      1 UNK        -0.1150 
     11 C7         15.6099    0.4645   -2.4549 C.ar      1 UNK         0.0000 
     12 C8         15.4769    1.9021   -2.1038 C.ar      1 UNK        -0.2920 
     13 C9         15.5532    2.3613   -0.7659 C.ar      1 UNK         0.2270 
     14 C10        15.2835    3.7048   -0.4343 C.ar      1 UNK        -0.4470 
     15 C11        14.9471    4.6239   -1.4406 C.ar      1 UNK         0.4730 
     16 N4         14.9081    4.2029   -2.7794 N.ar      1 UNK        -0.6780 
     17 C12        15.1741    2.8578   -3.1038 C.ar      1 UNK         0.4730 
     18 C13        15.2059   -0.5552   -1.5583 C.ar      1 UNK        -0.1150 
     19 C14        14.7974   -4.3874   -1.4430 C.3       1 UNK        -0.0600 
     20 C15        16.0547   -5.1279   -1.0470 C.3       1 UNK        -0.1200 
     21 C16        14.7243   -5.5220   -0.4464 C.3       1 UNK        -0.1200 
     22 C17        13.1177   -2.6879   -0.7028 C.2       1 UNK         0.6225 
     23 O1         12.1860   -2.7189   -1.5139 O.2       1 UNK        -0.5000 
     24 H1         10.9228   -2.8632    0.9660 H         1 UNK         0.0600 
     25 H2         11.7457   -2.2845    2.4102 H         1 UNK         0.0600 
     26 H3         11.3564   -1.1585    1.0940 H         1 UNK         0.0600 
     27 H4         15.3986   -2.4098    2.9173 H         1 UNK         0.4600 
     28 H5         16.1460   -2.8344    0.6139 H         1 UNK         0.3451 
     29 H6         15.3793   -3.2575   -3.6587 H         1 UNK         0.1150 
     30 H7         16.3438   -1.5589   -5.1195 H         1 UNK         0.1150 
     31 H8         16.4466    0.7862   -4.4355 H         1 UNK         0.1150 
     32 H9         15.8594    1.6985    0.0292 H         1 UNK         0.0650 
     33 H10        15.3525    4.0521    0.5852 H         1 UNK         0.1550 
     34 H11        14.7141    5.6496   -1.1940 H         1 UNK         0.0120 
     35 H12        15.1296    2.5646   -4.1382 H         1 UNK         0.0120 
     36 H13        14.9033   -0.2760   -0.5601 H         1 UNK         0.1150 
     37 H14        14.4439   -4.5085   -2.4644 H         1 UNK         0.0600 
     38 H15        16.7726   -4.6395   -0.3911 H         1 UNK         0.0600 
     39 H16        16.4881   -5.8053   -1.7804 H         1 UNK         0.0600 
     40 H17        14.5755   -5.2880    0.6015 H         1 UNK         0.0600 
     41 H18        14.2695   -6.4537   -0.7788 H         1 UNK         0.0600 
     42 H19        13.7416   -2.0408    3.2608 H         1 UNK         0.4600 
@<TRIPOS>BOND
     1    1    2 1    
     2    1   24 1    
     3    1   25 1    
     4    1   26 1    
     5    2    3 1    
     6    2   22 am   BACKBONE|DICT|INTERRES
     7    3    4 ar   
     8    3    5 ar   
     9    4   27 1    
    10    4   42 1    
    11    5    6 1    
    12    5   28 1    
    13    6    7 1    
    14    6   19 1    
    15    6   22 1    
    16    7    8 ar   
    17    7   18 ar   
    18    8    9 ar   
    19    8   29 1    
    20    9   10 ar   
    21    9   30 1    
    22   10   11 ar   
    23   10   31 1    
    24   11   12 1    
    25   11   18 ar   
    26   12   13 ar   
    27   12   17 ar   
    28   13   14 ar   
    29   13   32 1    
    30   14   15 ar   
    31   14   33 1    
    32   15   16 ar   
    33   15   34 1    
    34   16   17 ar   
    35   17   35 1    
    36   18   36 1    
    37   19   20 1    
    38   19   21 1    
    39   19   37 1    
    40   20   21 1    
    41   20   38 1    
    42   20   39 1    
    43   21   40 1    
    44   21   41 1    
    45   22   23 2    
@<TRIPOS>SUBSTRUCTURE
     1 UNK         1 GROUP             0       ****    0 ROOT    
@<TRIPOS>MOLECULE
CAT-13c
45   47    1
SMALL
USER_CHARGES


@<TRIPOS>ATOM
      1 C1         16.2635   -4.7017   -1.4842 C.3       1 UNK        -0.1800 
      2 C19        14.7974   -4.3875   -1.4428 C.3       1 UNK         0.0100 
      3 C2         14.1081   -5.3399   -0.5113 C.3       1 UNK        -0.1800 
      4 C3         14.6008   -2.9822   -0.9565 C.3       1 UNK         0.3780 
      5 C4         15.1276   -1.9196   -1.9457 C.ar      1 UNK        -0.1150 
      6 C5         15.4911   -2.2559   -3.2691 C.ar      1 UNK        -0.1150 
      7 C6         16.0026   -1.2814   -4.1316 C.ar      1 UNK        -0.1150 
      8 C7         16.0562    0.0656   -3.7342 C.ar      1 UNK        -0.1150 
      9 C8         15.6099    0.4645   -2.4549 C.ar      1 UNK         0.0000 
     10 C9         15.4769    1.9021   -2.1038 C.ar      1 UNK         0.0000 
     11 C10        15.1741    2.8578   -3.1038 C.ar      1 UNK        -0.1150 
     12 C11        14.9081    4.2029   -2.7794 C.ar      1 UNK        -0.1150 
     13 C12        14.9471    4.6239   -1.4406 C.ar      1 UNK        -0.1150 
     14 C13        15.2835    3.7048   -0.4343 C.ar      1 UNK         0.1800 
     15 CL1        15.3415    4.2337    1.2070 Cl        1 UNK        -0.1800 
     16 C14        15.5532    2.3613   -0.7659 C.ar      1 UNK        -0.1150 
     17 C15        15.2059   -0.5552   -1.5583 C.ar      1 UNK        -0.1150 
     18 N1         15.1499   -2.7842    0.3899 N.pl3     1 UNK        -0.5282 
     19 C16        14.1857   -2.5033    1.2745 C.cat     1 UNK         0.5687 
     20 N2         14.4361   -2.3451    2.5798 N.pl3     1 UNK        -0.9138 
     21 N3         12.9759   -2.4302    0.6898 N.am      1 UNK        -0.0184 
     22 C17        11.6820   -2.1707    1.3298 C.3       1 UNK        -0.0090 
     23 C18        13.1177   -2.6879   -0.7028 C.2       1 UNK         0.6225 
     24 O1         12.1860   -2.7189   -1.5139 O.2       1 UNK        -0.5000 
     25 H1         16.6851   -4.6009   -0.4842 H         1 UNK         0.0600 
     26 H2         16.4064   -5.7229   -1.8376 H         1 UNK         0.0600 
     27 H3         16.7644   -4.0096   -2.1611 H         1 UNK         0.0600 
     28 H4         14.3758   -4.4882   -2.4429 H         1 UNK         0.0600 
     29 H5         14.5297   -5.2392    0.4888 H         1 UNK         0.0600 
     30 H6         13.0427   -5.1116   -0.4811 H         1 UNK         0.0600 
     31 H7         14.2509   -6.3611   -0.8646 H         1 UNK         0.0600 
     32 H8         15.3768   -3.2479   -3.6692 H         1 UNK         0.1150 
     33 H9         16.3514   -1.5670   -5.1158 H         1 UNK         0.1150 
     34 H10        16.4718    0.7891   -4.4099 H         1 UNK         0.1150 
     35 H11        15.1120    2.5518   -4.1381 H         1 UNK         0.1150 
     36 H12        14.6565    4.9113   -3.5555 H         1 UNK         0.1150 
     37 H13        14.7192    5.6490   -1.1840 H         1 UNK         0.1150 
     38 H14        15.8276    1.6762    0.0196 H         1 UNK         0.1150 
     39 H15        14.9117   -0.2622   -0.5625 H         1 UNK         0.1150 
     40 H16        16.1464   -2.8784    0.5930 H         1 UNK         0.3451 
     41 H17        15.3986   -2.4098    2.9173 H         1 UNK         0.4600 
     42 H18        10.9228   -2.8632    0.9660 H         1 UNK         0.0600 
     43 H19        11.7457   -2.2845    2.4102 H         1 UNK         0.0600 
     44 H20        11.3564   -1.1585    1.0940 H         1 UNK         0.0600 
     45 H21        13.7416   -2.0408    3.2608 H         1 UNK         0.4600 
@<TRIPOS>BOND
     1    1    2 1    
     2    1   25 1    
     3    1   26 1    
     4    1   27 1    
     5    2    3 1    
     6    2    4 1    
     7    2   28 1    
     8    3   29 1    
     9    3   30 1    
    10    3   31 1    
    11    4    5 1    
    12    4   18 1    
    13    4   23 1    
    14    5    6 ar   
    15    5   17 ar   
    16    6    7 ar   
    17    6   32 1    
    18    7    8 ar   
    19    7   33 1    
    20    8    9 ar   
    21    8   34 1    
    22    9   10 1    
    23    9   17 ar   
    24   10   11 ar   
    25   10   16 ar   
    26   11   12 ar   
    27   11   35 1    
    28   12   13 ar   
    29   12   36 1    
    30   13   14 ar   
    31   13   37 1    
    32   14   15 1    
    33   14   16 ar   
    34   16   38 1    
    35   17   39 1    
    36   18   19 ar   
    37   18   40 1    
    38   19   20 ar   
    39   19   21 1    
    40   20   41 1    
    41   20   45 1    
    42   21   22 1    
    43   21   23 am   BACKBONE|DICT|INTERRES
    44   22   42 1    
    45   22   43 1    
    46   22   44 1    
    47   23   24 2    
@<TRIPOS>SUBSTRUCTURE
     1 UNK         1 GROUP             0       ****    0 ROOT    
@<TRIPOS>MOLECULE
CAT-17c
44   47    1
SMALL
USER_CHARGES


@<TRIPOS>ATOM
      1 C1         11.6820   -2.1707    1.3298 C.3       1 UNK        -0.0090 
      2 N1         12.9759   -2.4302    0.6898 N.am      1 UNK        -0.0184 
      3 C20        14.1857   -2.5033    1.2745 C.cat     1 UNK         0.5687 
      4 N2         14.4361   -2.3451    2.5798 N.pl3     1 UNK        -0.9138 
      5 N3         15.1499   -2.7842    0.3899 N.pl3     1 UNK        -0.5282 
      6 C2         14.6008   -2.9822   -0.9565 C.3       1 UNK         0.4480 
      7 C3         15.1276   -1.9196   -1.9457 C.ar      1 UNK        -0.1150 
      8 C4         15.4911   -2.2559   -3.2691 C.ar      1 UNK        -0.1150 
      9 C5         16.0026   -1.2814   -4.1316 C.ar      1 UNK        -0.1150 
     10 C6         16.0562    0.0656   -3.7342 C.ar      1 UNK        -0.1150 
     11 C7         15.6099    0.4645   -2.4549 C.ar      1 UNK         0.0000 
     12 C8         15.4769    1.9021   -2.1038 C.ar      1 UNK         0.0000 
     13 C9         15.1741    2.8578   -3.1038 C.ar      1 UNK        -0.1150 
     14 C10        14.9081    4.2029   -2.7794 C.ar      1 UNK        -0.1150 
     15 C11        14.9471    4.6239   -1.4406 C.ar      1 UNK        -0.1150 
     16 C12        15.2835    3.7048   -0.4343 C.ar      1 UNK         0.0350 
     17 C13        15.3456    4.1329    0.9510 C.1       1 UNK         0.3950 
     18 N4         15.3974    4.4754    2.0532 N.1       1 UNK        -0.4300 
     19 C14        15.5532    2.3613   -0.7659 C.ar      1 UNK        -0.1150 
     20 C15        15.2059   -0.5552   -1.5583 C.ar      1 UNK        -0.1150 
     21 C16        14.7974   -4.3874   -1.4430 C.3       1 UNK        -0.0600 
     22 C17        16.0547   -5.1279   -1.0470 C.3       1 UNK        -0.1200 
     23 C18        14.7243   -5.5220   -0.4464 C.3       1 UNK        -0.1200 
     24 C19        13.1177   -2.6879   -0.7028 C.2       1 UNK         0.6225 
     25 O1         12.1860   -2.7189   -1.5139 O.2       1 UNK        -0.5000 
     26 H1         10.9228   -2.8632    0.9660 H         1 UNK         0.0600 
     27 H2         11.7457   -2.2845    2.4102 H         1 UNK         0.0600 
     28 H3         11.3564   -1.1585    1.0940 H         1 UNK         0.0600 
     29 H4         15.3986   -2.4098    2.9173 H         1 UNK         0.4600 
     30 H5         16.1398   -2.8890    0.6224 H         1 UNK         0.3451 
     31 H6         15.3760   -3.2557   -3.6622 H         1 UNK         0.1150 
     32 H7         16.3370   -1.5591   -5.1222 H         1 UNK         0.1150 
     33 H8         16.4418    0.7931   -4.4318 H         1 UNK         0.1150 
     34 H9         15.1006    2.5517   -4.1373 H         1 UNK         0.1150 
     35 H10        14.6506    4.9113   -3.5536 H         1 UNK         0.1150 
     36 H11        14.7127    5.6501   -1.1903 H         1 UNK         0.1150 
     37 H12        15.8201    1.6722    0.0203 H         1 UNK         0.1150 
     38 H13        14.8948   -0.2640   -0.5664 H         1 UNK         0.1150 
     39 H14        14.4450   -4.5072   -2.4644 H         1 UNK         0.0600 
     40 H15        16.4874   -5.8058   -1.7803 H         1 UNK         0.0600 
     41 H16        16.7732   -4.6421   -0.3899 H         1 UNK         0.0600 
     42 H17        14.5730   -5.2849    0.6001 H         1 UNK         0.0600 
     43 H18        14.2692   -6.4537   -0.7784 H         1 UNK         0.0600 
     44 H19        13.7416   -2.0408    3.2608 H         1 UNK         0.4600 
@<TRIPOS>BOND
     1    1    2 1    
     2    1   26 1    
     3    1   27 1    
     4    1   28 1    
     5    2    3 1    
     6    2   24 am   BACKBONE|DICT|INTERRES
     7    3    4 ar   
     8    3    5 ar   
     9    4   29 1    
    10    4   44 1    
    11    5    6 1    
    12    5   30 1    
    13    6    7 1    
    14    6   21 1    
    15    6   24 1    
    16    7    8 ar   
    17    7   20 ar   
    18    8    9 ar   
    19    8   31 1    
    20    9   10 ar   
    21    9   32 1    
    22   10   11 ar   
    23   10   33 1    
    24   11   12 1    
    25   11   20 ar   
    26   12   13 ar   
    27   12   19 ar   
    28   13   14 ar   
    29   13   34 1    
    30   14   15 ar   
    31   14   35 1    
    32   15   16 ar   
    33   15   36 1    
    34   16   17 1    
    35   16   19 ar   
    36   17   18 3    
    37   19   37 1    
    38   20   38 1    
    39   21   22 1    
    40   21   23 1    
    41   21   39 1    
    42   22   23 1    
    43   22   40 1    
    44   22   41 1    
    45   23   42 1    
    46   23   43 1    
    47   24   25 2    
@<TRIPOS>SUBSTRUCTURE
     1 UNK         1 GROUP             0       ****    0 ROOT    
@<TRIPOS>MOLECULE
CAT-24
47   50    1
SMALL
USER_CHARGES


@<TRIPOS>ATOM
      1 C1         15.4846    5.0092    3.5751 C.3       1 UNK        -0.1800 
      2 C21        15.4166    4.5466    2.1498 C.1       1 UNK         0.0000 
      3 C2         15.3582    4.1700    0.9898 C.1       1 UNK        -0.0350 
      4 C3         15.2835    3.7048   -0.4343 C.ar      1 UNK        -0.2570 
      5 C4         14.9471    4.6239   -1.4406 C.ar      1 UNK         0.4730 
      6 N1         14.9081    4.2029   -2.7794 N.ar      1 UNK        -0.6780 
      7 C5         15.1741    2.8578   -3.1038 C.ar      1 UNK         0.4730 
      8 C6         15.4769    1.9021   -2.1038 C.ar      1 UNK        -0.2920 
      9 C7         15.6099    0.4645   -2.4549 C.ar      1 UNK         0.0000 
     10 C8         16.0562    0.0656   -3.7342 C.ar      1 UNK        -0.1150 
     11 C9         16.0026   -1.2814   -4.1316 C.ar      1 UNK        -0.1150 
     12 C10        15.4911   -2.2559   -3.2691 C.ar      1 UNK        -0.1150 
     13 C11        15.1276   -1.9196   -1.9457 C.ar      1 UNK        -0.1150 
     14 C12        14.6008   -2.9822   -0.9565 C.3       1 UNK         0.4480 
     15 C13        14.7974   -4.3874   -1.4430 C.3       1 UNK        -0.0600 
     16 C14        16.0547   -5.1279   -1.0470 C.3       1 UNK        -0.1200 
     17 C15        14.7243   -5.5220   -0.4464 C.3       1 UNK        -0.1200 
     18 N2         15.1499   -2.7842    0.3899 N.pl3     1 UNK        -0.5282 
     19 C16        14.1857   -2.5033    1.2745 C.cat     1 UNK         0.5687 
     20 N3         14.4361   -2.3451    2.5798 N.pl3     1 UNK        -0.9138 
     21 N4         12.9759   -2.4302    0.6898 N.am      1 UNK        -0.0184 
     22 C17        11.6820   -2.1707    1.3298 C.3       1 UNK        -0.0090 
     23 C18        13.1177   -2.6879   -0.7028 C.2       1 UNK         0.6225 
     24 O1         12.1860   -2.7189   -1.5139 O.2       1 UNK        -0.5000 
     25 C19        15.2059   -0.5552   -1.5583 C.ar      1 UNK        -0.1150 
     26 C20        15.5532    2.3613   -0.7659 C.ar      1 UNK         0.2270 
     27 H1         16.5268    5.1472    3.8630 H         1 UNK         0.0600 
     28 H2         14.9515    5.9545    3.6761 H         1 UNK         0.0600 
     29 H3         15.0249    4.2619    4.2219 H         1 UNK         0.0600 
     30 H4         14.7283    5.6550   -1.2018 H         1 UNK         0.0120 
     31 H5         15.0822    2.6319   -4.1549 H         1 UNK         0.0120 
     32 H6         16.4233    0.7886   -4.4446 H         1 UNK         0.1150 
     33 H7         16.3325   -1.5511   -5.1244 H         1 UNK         0.1150 
     34 H8         15.3878   -3.2382   -3.6901 H         1 UNK         0.1150 
     35 H9         14.3899   -4.5385   -2.4449 H         1 UNK         0.0600 
     36 H10        16.5242   -5.7955   -1.7726 H         1 UNK         0.0600 
     37 H11        16.7886   -4.6213   -0.4164 H         1 UNK         0.0600 
     38 H12        14.5302   -5.2903    0.6031 H         1 UNK         0.0600 
     39 H13        14.2658   -6.4646   -0.7530 H         1 UNK         0.0600 
     40 H14        16.1492   -2.8427    0.5928 H         1 UNK         0.3451 
     41 H15        15.3986   -2.4098    2.9173 H         1 UNK         0.4600 
     42 H16        10.9228   -2.8632    0.9660 H         1 UNK         0.0600 
     43 H17        11.7457   -2.2845    2.4102 H         1 UNK         0.0600 
     44 H18        11.3564   -1.1585    1.0940 H         1 UNK         0.0600 
     45 H19        14.8815   -0.2610   -0.5711 H         1 UNK         0.1150 
     46 H20        15.8253    1.6638    0.0076 H         1 UNK         0.0650 
     47 H21        13.7416   -2.0408    3.2608 H         1 UNK         0.4600 
@<TRIPOS>BOND
     1    1    2 1    
     2    1   27 1    
     3    1   28 1    
     4    1   29 1    
     5    2    3 3    
     6    3    4 1    
     7    4    5 ar   
     8    4   26 ar   
     9    5    6 ar   
    10    5   30 1    
    11    6    7 ar   
    12    7    8 ar   
    13    7   31 1    
    14    8    9 1    
    15    8   26 ar   
    16    9   10 ar   
    17    9   25 ar   
    18   10   11 ar   
    19   10   32 1    
    20   11   12 ar   
    21   11   33 1    
    22   12   13 ar   
    23   12   34 1    
    24   13   14 1    
    25   13   25 ar   
    26   14   15 1    
    27   14   18 1    
    28   14   23 1    
    29   15   16 1    
    30   15   17 1    
    31   15   35 1    
    32   16   17 1    
    33   16   36 1    
    34   16   37 1    
    35   17   38 1    
    36   17   39 1    
    37   18   19 ar   
    38   18   40 1    
    39   19   20 ar   
    40   19   21 1    
    41   20   41 1    
    42   20   47 1    
    43   21   22 1    
    44   21   23 am   BACKBONE|DICT|INTERRES
    45   22   42 1    
    46   22   43 1    
    47   22   44 1    
    48   23   24 2    
    49   25   45 1    
    50   26   46 1    
@<TRIPOS>SUBSTRUCTURE
     1 UNK         1 GROUP             0       ****    0 ROOT    
@<TRIPOS>MOLECULE
CAT-17i
45   48    1
SMALL
USER_CHARGES


@<TRIPOS>ATOM
      1 C1         15.3389    4.1430    1.0155 C.3       1 UNK        -0.0170 
      2 C19        15.2835    3.7048   -0.4343 C.ar      1 UNK        -0.4550 
      3 C2         14.9471    4.6239   -1.4406 C.ar      1 UNK         0.4730 
      4 N1         14.9081    4.2029   -2.7794 N.ar      1 UNK        -0.6780 
      5 C3         15.1741    2.8578   -3.1038 C.ar      1 UNK         0.4730 
      6 C4         15.4769    1.9021   -2.1038 C.ar      1 UNK        -0.2920 
      7 C5         15.6099    0.4645   -2.4549 C.ar      1 UNK         0.0000 
      8 C6         16.0562    0.0656   -3.7342 C.ar      1 UNK        -0.1150 
      9 C7         16.0026   -1.2814   -4.1316 C.ar      1 UNK        -0.1150 
     10 C8         15.4911   -2.2559   -3.2691 C.ar      1 UNK        -0.1150 
     11 C9         15.1276   -1.9196   -1.9457 C.ar      1 UNK        -0.1150 
     12 C10        14.6008   -2.9822   -0.9565 C.3       1 UNK         0.4480 
     13 C11        14.7974   -4.3874   -1.4430 C.3       1 UNK        -0.0600 
     14 C12        16.0547   -5.1279   -1.0470 C.3       1 UNK        -0.1200 
     15 C13        14.7243   -5.5220   -0.4464 C.3       1 UNK        -0.1200 
     16 N2         15.1499   -2.7842    0.3899 N.pl3     1 UNK        -0.5282 
     17 C14        14.1857   -2.5033    1.2745 C.cat     1 UNK         0.5687 
     18 N3         14.4361   -2.3451    2.5798 N.pl3     1 UNK        -0.9138 
     19 N4         12.9759   -2.4302    0.6898 N.am      1 UNK        -0.0184 
     20 C15        11.6820   -2.1707    1.3298 C.3       1 UNK        -0.0090 
     21 C16        13.1177   -2.6879   -0.7028 C.2       1 UNK         0.6225 
     22 O1         12.1860   -2.7189   -1.5139 O.2       1 UNK        -0.5000 
     23 C17        15.2059   -0.5552   -1.5583 C.ar      1 UNK        -0.1150 
     24 C18        15.5532    2.3613   -0.7659 C.ar      1 UNK         0.2270 
     25 H1         16.2402    3.7703    1.5028 H         1 UNK         0.0600 
     26 H2         15.3306    5.2305    1.1005 H         1 UNK         0.0600 
     27 H3         14.4707    3.7647    1.5516 H         1 UNK         0.0600 
     28 H4         14.7527    5.6613   -1.1999 H         1 UNK         0.0120 
     29 H5         15.0435    2.6128   -4.1469 H         1 UNK         0.0120 
     30 H6         16.4420    0.7838   -4.4405 H         1 UNK         0.1150 
     31 H7         16.3265   -1.5764   -5.1175 H         1 UNK         0.1150 
     32 H8         15.3867   -3.2334   -3.7013 H         1 UNK         0.1150 
     33 H9         14.5216   -4.4833   -2.4931 H         1 UNK         0.0600 
     34 H10        16.5062   -5.7691   -1.8035 H         1 UNK         0.0600 
     35 H11        16.7415   -4.5874   -0.4178 H         1 UNK         0.0600 
     36 H12        14.5991   -5.3230    0.6043 H         1 UNK         0.0600 
     37 H13        14.2524   -6.4442   -0.7920 H         1 UNK         0.0600 
     38 H14        16.1284   -2.9746    0.6141 H         1 UNK         0.3451 
     39 H15        15.3986   -2.4098    2.9173 H         1 UNK         0.4600 
     40 H16        10.9228   -2.8632    0.9660 H         1 UNK         0.0600 
     41 H17        11.7457   -2.2845    2.4102 H         1 UNK         0.0600 
     42 H18        11.3564   -1.1585    1.0940 H         1 UNK         0.0600 
     43 H19        14.8657   -0.2782   -0.5707 H         1 UNK         0.1150 
     44 H20        15.8008    1.6598    0.0122 H         1 UNK         0.0650 
     45 H21        13.7416   -2.0408    3.2608 H         1 UNK         0.4600 
@<TRIPOS>BOND
     1    1    2 1    
     2    1   25 1    
     3    1   26 1    
     4    1   27 1    
     5    2    3 ar   
     6    2   24 ar   
     7    3    4 ar   
     8    3   28 1    
     9    4    5 ar   
    10    5    6 ar   
    11    5   29 1    
    12    6    7 1    
    13    6   24 ar   
    14    7    8 ar   
    15    7   23 ar   
    16    8    9 ar   
    17    8   30 1    
    18    9   10 ar   
    19    9   31 1    
    20   10   11 ar   
    21   10   32 1    
    22   11   12 1    
    23   11   23 ar   
    24   12   13 1    
    25   12   16 1    
    26   12   21 1    
    27   13   14 1    
    28   13   15 1    
    29   13   33 1    
    30   14   15 1    
    31   14   34 1    
    32   14   35 1    
    33   15   36 1    
    34   15   37 1    
    35   16   17 ar   
    36   16   38 1    
    37   17   18 ar   
    38   17   19 1    
    39   18   39 1    
    40   18   45 1    
    41   19   20 1    
    42   19   21 am   BACKBONE|DICT|INTERRES
    43   20   40 1    
    44   20   41 1    
    45   20   42 1    
    46   21   22 2    
    47   23   43 1    
    48   24   44 1    
@<TRIPOS>SUBSTRUCTURE
     1 UNK         1 GROUP             0       ****    0 ROOT    
@<TRIPOS>MOLECULE
CAT-13g
52   55    1
SMALL
USER_CHARGES


@<TRIPOS>ATOM
      1 C1         11.6820   -2.1707    1.3298 C.3       1 UNK        -0.0090 
      2 N1         12.9759   -2.4302    0.6898 N.am      1 UNK        -0.0184 
      3 C22        14.1857   -2.5033    1.2745 C.cat     1 UNK         0.5687 
      4 N2         14.4361   -2.3451    2.5798 N.pl3     1 UNK        -0.9138 
      5 N3         15.1499   -2.7842    0.3899 N.pl3     1 UNK        -0.5282 
      6 C2         14.6008   -2.9822   -0.9565 C.3       1 UNK         0.3780 
      7 C3         15.1276   -1.9196   -1.9457 C.ar      1 UNK        -0.1150 
      8 C4         15.4911   -2.2559   -3.2691 C.ar      1 UNK        -0.1150 
      9 C5         16.0026   -1.2814   -4.1316 C.ar      1 UNK        -0.1150 
     10 C6         16.0562    0.0656   -3.7342 C.ar      1 UNK        -0.1150 
     11 C7         15.6099    0.4645   -2.4549 C.ar      1 UNK         0.0000 
     12 C8         15.4769    1.9021   -2.1038 C.ar      1 UNK         0.0000 
     13 C9         15.1741    2.8578   -3.1038 C.ar      1 UNK        -0.1150 
     14 C10        14.9081    4.2029   -2.7794 C.ar      1 UNK        -0.1150 
     15 C11        14.9471    4.6239   -1.4406 C.ar      1 UNK        -0.1150 
     16 C12        15.2835    3.7048   -0.4343 C.ar      1 UNK         0.1800 
     17 CL1        15.3415    4.2337    1.2070 Cl        1 UNK        -0.1800 
     18 C13        15.5532    2.3613   -0.7659 C.ar      1 UNK        -0.1150 
     19 C14        15.2059   -0.5552   -1.5583 C.ar      1 UNK        -0.1150 
     20 C15        14.7887   -4.4804   -1.3903 C.3       1 UNK         0.0100 
     21 C16        16.2630   -4.8725   -1.6061 C.3       1 UNK        -0.1200 
     22 C17        16.3888   -6.2770   -2.2013 C.3       1 UNK        -0.1200 
     23 C18        15.8131   -7.2996   -1.2236 C.3       1 UNK        -0.1200 
     24 C19        14.3456   -6.9746   -0.9188 C.3       1 UNK        -0.1200 
     25 C20        14.1673   -5.5282   -0.4194 C.3       1 UNK        -0.1200 
     26 C21        13.1177   -2.6879   -0.7028 C.2       1 UNK         0.6225 
     27 O1         12.1860   -2.7189   -1.5139 O.2       1 UNK        -0.5000 
     28 H1         11.3564   -1.1585    1.0940 H         1 UNK         0.0600 
     29 H2         10.9228   -2.8632    0.9660 H         1 UNK         0.0600 
     30 H3         11.7457   -2.2845    2.4102 H         1 UNK         0.0600 
     31 H4         13.7416   -2.0408    3.2608 H         1 UNK         0.4600 
     32 H5         16.1420   -2.8464    0.6123 H         1 UNK         0.3451 
     33 H6         15.4232   -3.2618   -3.6536 H         1 UNK         0.1150 
     34 H7         16.3339   -1.5765   -5.1141 H         1 UNK         0.1150 
     35 H8         16.4155    0.7934   -4.4473 H         1 UNK         0.1150 
     36 H9         15.0829    2.5513   -4.1351 H         1 UNK         0.1150 
     37 H10        14.6436    4.9090   -3.5548 H         1 UNK         0.1150 
     38 H11        14.7210    5.6482   -1.1823 H         1 UNK         0.1150 
     39 H12        15.7987    1.6737    0.0263 H         1 UNK         0.1150 
     40 H13        14.8764   -0.2706   -0.5717 H         1 UNK         0.1150 
     41 H14        14.2658   -4.6096   -2.3387 H         1 UNK         0.0600 
     42 H15        16.7767   -4.1756   -2.2561 H         1 UNK         0.0600 
     43 H16        16.7869   -4.8372   -0.6499 H         1 UNK         0.0600 
     44 H17        17.4336   -6.5015   -2.4013 H         1 UNK         0.0600 
     45 H18        15.8707   -6.3310   -3.1600 H         1 UNK         0.0600 
     46 H19        15.9010   -8.3040   -1.6298 H         1 UNK         0.0600 
     47 H20        16.4015   -7.2923   -0.3053 H         1 UNK         0.0600 
     48 H21        13.7480   -7.1276   -1.8192 H         1 UNK         0.0600 
     49 H22        13.9654   -7.6729   -0.1726 H         1 UNK         0.0600 
     50 H23        14.6309   -5.4382    0.5640 H         1 UNK         0.0600 
     51 H24        13.1008   -5.3581   -0.2716 H         1 UNK         0.0600 
     52 H25        15.3986   -2.4098    2.9173 H         1 UNK         0.4600 
@<TRIPOS>BOND
     1    1    2 1    
     2    1   28 1    
     3    1   29 1    
     4    1   30 1    
     5    2    3 1    
     6    2   26 am   BACKBONE|DICT|INTERRES
     7    3    4 ar   
     8    3    5 ar   
     9    4   31 1    
    10    4   52 1    
    11    5    6 1    
    12    5   32 1    
    13    6    7 1    
    14    6   20 1    
    15    6   26 1    
    16    7    8 ar   
    17    7   19 ar   
    18    8    9 ar   
    19    8   33 1    
    20    9   10 ar   
    21    9   34 1    
    22   10   11 ar   
    23   10   35 1    
    24   11   12 1    
    25   11   19 ar   
    26   12   13 ar   
    27   12   18 ar   
    28   13   14 ar   
    29   13   36 1    
    30   14   15 ar   
    31   14   37 1    
    32   15   16 ar   
    33   15   38 1    
    34   16   17 1    
    35   16   18 ar   
    36   18   39 1    
    37   19   40 1    
    38   20   21 1    
    39   20   25 1    
    40   20   41 1    
    41   21   22 1    
    42   21   42 1    
    43   21   43 1    
    44   22   23 1    
    45   22   44 1    
    46   22   45 1    
    47   23   24 1    
    48   23   46 1    
    49   23   47 1    
    50   24   25 1    
    51   24   48 1    
    52   24   49 1    
    53   25   50 1    
    54   25   51 1    
    55   26   27 2    
@<TRIPOS>SUBSTRUCTURE
     1 UNK         1 GROUP             0       ****    0 ROOT    
@<TRIPOS>MOLECULE
CAT-4j
45   48    1
SMALL
USER_CHARGES


@<TRIPOS>ATOM
      1 C1         11.6820   -2.1707    1.3298 C.3       1 UNK        -0.0090 
      2 N1         12.9759   -2.4302    0.6898 N.am      1 UNK        -0.0184 
      3 C21        14.1857   -2.5033    1.2745 C.cat     1 UNK         0.5687 
      4 N2         14.4361   -2.3451    2.5798 N.pl3     1 UNK        -0.9138 
      5 N3         15.1499   -2.7842    0.3899 N.pl3     1 UNK        -0.5282 
      6 C2         14.6008   -2.9822   -0.9565 C.3       1 UNK         0.5630 
      7 C3         14.8601   -4.4483   -1.3759 C.ar      1 UNK        -0.1150 
      8 C4         16.0961   -5.0428   -1.0437 C.ar      1 UNK        -0.1150 
      9 C5         16.3957   -6.3717   -1.3851 C.ar      1 UNK        -0.1150 
     10 C6         15.4382   -7.1531   -2.0424 C.ar      1 UNK        -0.1150 
     11 C7         14.2010   -6.5878   -2.3927 C.ar      1 UNK        -0.1150 
     12 C8         13.9201   -5.2434   -2.0756 C.ar      1 UNK        -0.1150 
     13 C9         15.1276   -1.9196   -1.9457 C.ar      1 UNK        -0.1150 
     14 C10        15.4911   -2.2559   -3.2691 C.ar      1 UNK        -0.1150 
     15 C11        16.0026   -1.2814   -4.1316 C.ar      1 UNK        -0.1150 
     16 C12        16.0562    0.0656   -3.7342 C.ar      1 UNK        -0.1150 
     17 C13        15.6099    0.4645   -2.4549 C.ar      1 UNK         0.0000 
     18 C14        15.4769    1.9021   -2.1038 C.ar      1 UNK        -0.2920 
     19 C15        15.1741    2.8578   -3.1038 C.ar      1 UNK         0.2270 
     20 C16        14.9081    4.2029   -2.7794 C.ar      1 UNK        -0.4470 
     21 C17        14.9471    4.6239   -1.4406 C.ar      1 UNK         0.4730 
     22 N4         15.2835    3.7048   -0.4343 N.ar      1 UNK        -0.6780 
     23 C18        15.5532    2.3613   -0.7659 C.ar      1 UNK         0.4730 
     24 C19        15.2059   -0.5552   -1.5583 C.ar      1 UNK        -0.1150 
     25 C20        13.1177   -2.6879   -0.7028 C.2       1 UNK         0.6225 
     26 O1         12.1860   -2.7189   -1.5139 O.2       1 UNK        -0.5000 
     27 H1         10.9228   -2.8632    0.9660 H         1 UNK         0.0600 
     28 H2         11.7457   -2.2845    2.4102 H         1 UNK         0.0600 
     29 H3         11.3564   -1.1585    1.0940 H         1 UNK         0.0600 
     30 H4         15.3986   -2.4098    2.9173 H         1 UNK         0.4600 
     31 H5         16.1421   -2.8513    0.6165 H         1 UNK         0.3451 
     32 H6         16.8295   -4.4818   -0.4940 H         1 UNK         0.1150 
     33 H7         17.3542   -6.7924   -1.1145 H         1 UNK         0.1150 
     34 H8         15.6570   -8.1842   -2.2581 H         1 UNK         0.1150 
     35 H9         13.4653   -7.1907   -2.9034 H         1 UNK         0.1150 
     36 H10        12.9632   -4.8471   -2.3650 H         1 UNK         0.1150 
     37 H11        15.3802   -3.2624   -3.6499 H         1 UNK         0.1150 
     38 H12        16.3499   -1.5551   -5.1180 H         1 UNK         0.1150 
     39 H13        16.4469    0.7893   -4.4320 H         1 UNK         0.1150 
     40 H14        15.1009    2.5679   -4.1413 H         1 UNK         0.0650 
     41 H15        14.6488    4.9234   -3.5390 H         1 UNK         0.1550 
     42 H16        14.7213    5.6469   -1.1777 H         1 UNK         0.0120 
     43 H17        15.8354    1.6860    0.0224 H         1 UNK         0.0120 
     44 H18        14.9080   -0.2787   -0.5580 H         1 UNK         0.1150 
     45 H19        13.7416   -2.0408    3.2608 H         1 UNK         0.4600 
@<TRIPOS>BOND
     1    1    2 1    
     2    1   27 1    
     3    1   28 1    
     4    1   29 1    
     5    2    3 1    
     6    2   25 am   BACKBONE|DICT|INTERRES
     7    3    4 ar   
     8    3    5 ar   
     9    4   30 1    
    10    4   45 1    
    11    5    6 1    
    12    5   31 1    
    13    6    7 1    
    14    6   13 1    
    15    6   25 1    
    16    7    8 ar   
    17    7   12 ar   
    18    8    9 ar   
    19    8   32 1    
    20    9   10 ar   
    21    9   33 1    
    22   10   11 ar   
    23   10   34 1    
    24   11   12 ar   
    25   11   35 1    
    26   12   36 1    
    27   13   14 ar   
    28   13   24 ar   
    29   14   15 ar   
    30   14   37 1    
    31   15   16 ar   
    32   15   38 1    
    33   16   17 ar   
    34   16   39 1    
    35   17   18 1    
    36   17   24 ar   
    37   18   19 ar   
    38   18   23 ar   
    39   19   20 ar   
    40   19   40 1    
    41   20   21 ar   
    42   20   41 1    
    43   21   22 ar   
    44   21   42 1    
    45   22   23 ar   
    46   23   43 1    
    47   24   44 1    
    48   25   26 2    
@<TRIPOS>SUBSTRUCTURE
     1 UNK         1 GROUP             0       ****    0 ROOT    
@<TRIPOS>MOLECULE
CAT-17b
47   50    1
SMALL
USER_CHARGES


@<TRIPOS>ATOM
      1 C1         14.7488    5.2063    1.3474 C.3       1 UNK         0.1100 
      2 O1         15.3737    4.0152    0.9033 O.3       1 UNK        -0.2850 
      3 C20        15.2835    3.7048   -0.4343 C.ar      1 UNK         0.0850 
      4 C2         14.9471    4.6239   -1.4406 C.ar      1 UNK        -0.1150 
      5 C3         14.9081    4.2029   -2.7794 C.ar      1 UNK        -0.1150 
      6 C4         15.1741    2.8578   -3.1038 C.ar      1 UNK        -0.1150 
      7 C5         15.4769    1.9021   -2.1038 C.ar      1 UNK         0.0000 
      8 C6         15.6099    0.4645   -2.4549 C.ar      1 UNK         0.0000 
      9 C7         16.0562    0.0656   -3.7342 C.ar      1 UNK        -0.1150 
     10 C8         16.0026   -1.2814   -4.1316 C.ar      1 UNK        -0.1150 
     11 C9         15.4911   -2.2559   -3.2691 C.ar      1 UNK        -0.1150 
     12 C10        15.1276   -1.9196   -1.9457 C.ar      1 UNK        -0.1150 
     13 C11        14.6008   -2.9822   -0.9565 C.3       1 UNK         0.4480 
     14 C12        14.7974   -4.3874   -1.4430 C.3       1 UNK        -0.0600 
     15 C13        16.0547   -5.1279   -1.0470 C.3       1 UNK        -0.1200 
     16 C14        14.7243   -5.5220   -0.4464 C.3       1 UNK        -0.1200 
     17 N1         15.1499   -2.7842    0.3899 N.pl3     1 UNK        -0.5282 
     18 C15        14.1857   -2.5033    1.2745 C.cat     1 UNK         0.5687 
     19 N2         14.4361   -2.3451    2.5798 N.pl3     1 UNK        -0.9138 
     20 N3         12.9759   -2.4302    0.6898 N.am      1 UNK        -0.0184 
     21 C16        11.6820   -2.1707    1.3298 C.3       1 UNK        -0.0090 
     22 C17        13.1177   -2.6879   -0.7028 C.2       1 UNK         0.6225 
     23 O2         12.1860   -2.7189   -1.5139 O.2       1 UNK        -0.5000 
     24 C18        15.2059   -0.5552   -1.5583 C.ar      1 UNK        -0.1150 
     25 C19        15.5532    2.3613   -0.7659 C.ar      1 UNK        -0.1150 
     26 H1         14.7899    5.2574    2.4354 H         1 UNK         0.0300 
     27 H2         15.2354    6.0939    0.9560 H         1 UNK         0.0300 
     28 H3         13.7039    5.2264    1.0454 H         1 UNK         0.0300 
     29 H4         14.7232    5.6564   -1.2207 H         1 UNK         0.1150 
     30 H5         14.6606    4.9154   -3.5484 H         1 UNK         0.1150 
     31 H6         15.1023    2.5456   -4.1377 H         1 UNK         0.1150 
     32 H7         16.4269    0.8074   -4.4226 H         1 UNK         0.1150 
     33 H8         16.3537   -1.5374   -5.1204 H         1 UNK         0.1150 
     34 H9         15.3952   -3.2414   -3.6821 H         1 UNK         0.1150 
     35 H10        14.4691   -4.4809   -2.4799 H         1 UNK         0.0600 
     36 H11        16.4980   -5.7999   -1.7792 H         1 UNK         0.0600 
     37 H12        16.7683   -4.6018   -0.4292 H         1 UNK         0.0600 
     38 H13        14.5732   -5.3095    0.6017 H         1 UNK         0.0600 
     39 H14        14.2754   -6.4520   -0.7946 H         1 UNK         0.0600 
     40 H15        16.1520   -2.8078    0.5854 H         1 UNK         0.3451 
     41 H16        13.7416   -2.0408    3.2608 H         1 UNK         0.4600 
     42 H17        11.3564   -1.1585    1.0940 H         1 UNK         0.0600 
     43 H18        11.7457   -2.2845    2.4102 H         1 UNK         0.0600 
     44 H19        10.9228   -2.8632    0.9660 H         1 UNK         0.0600 
     45 H20        14.8984   -0.2599   -0.5676 H         1 UNK         0.1150 
     46 H21        15.8062    1.6851    0.0311 H         1 UNK         0.1150 
     47 H22        15.3986   -2.4098    2.9173 H         1 UNK         0.4600 
@<TRIPOS>BOND
     1    1    2 1    
     2    1   26 1    
     3    1   27 1    
     4    1   28 1    
     5    2    3 1    
     6    3    4 ar   
     7    3   25 ar   
     8    4    5 ar   
     9    4   29 1    
    10    5    6 ar   
    11    5   30 1    
    12    6    7 ar   
    13    6   31 1    
    14    7    8 1    
    15    7   25 ar   
    16    8    9 ar   
    17    8   24 ar   
    18    9   10 ar   
    19    9   32 1    
    20   10   11 ar   
    21   10   33 1    
    22   11   12 ar   
    23   11   34 1    
    24   12   13 1    
    25   12   24 ar   
    26   13   14 1    
    27   13   17 1    
    28   13   22 1    
    29   14   15 1    
    30   14   16 1    
    31   14   35 1    
    32   15   16 1    
    33   15   36 1    
    34   15   37 1    
    35   16   38 1    
    36   16   39 1    
    37   17   18 ar   
    38   17   40 1    
    39   18   19 ar   
    40   18   20 1    
    41   19   41 1    
    42   19   47 1    
    43   20   21 1    
    44   20   22 am   BACKBONE|DICT|INTERRES
    45   21   42 1    
    46   21   43 1    
    47   21   44 1    
    48   22   23 2    
    49   24   45 1    
    50   25   46 1    
@<TRIPOS>SUBSTRUCTURE
     1 UNK         1 GROUP             0       ****    0 ROOT    
@<TRIPOS>MOLECULE
CAT-4p
45   48    1
SMALL
USER_CHARGES


@<TRIPOS>ATOM
      1 C1         11.6820   -2.1707    1.3298 C.3       1 UNK        -0.0090 
      2 N1         12.9759   -2.4302    0.6898 N.am      1 UNK        -0.0184 
      3 C21        14.1857   -2.5033    1.2745 C.cat     1 UNK         0.5687 
      4 N2         14.4361   -2.3451    2.5798 N.pl3     1 UNK        -0.9138 
      5 N3         15.1499   -2.7842    0.3899 N.pl3     1 UNK        -0.5282 
      6 C2         14.6008   -2.9822   -0.9565 C.3       1 UNK         0.5630 
      7 C3         14.8601   -4.4483   -1.3759 C.ar      1 UNK        -0.1150 
      8 C4         13.9201   -5.2434   -2.0756 C.ar      1 UNK        -0.1150 
      9 C5         14.2010   -6.5878   -2.3927 C.ar      1 UNK        -0.1150 
     10 C6         15.4382   -7.1531   -2.0424 C.ar      1 UNK        -0.1150 
     11 C7         16.3957   -6.3717   -1.3851 C.ar      1 UNK        -0.1150 
     12 C8         16.0961   -5.0428   -1.0437 C.ar      1 UNK        -0.1150 
     13 C9         15.1276   -1.9196   -1.9457 C.ar      1 UNK        -0.1150 
     14 C10        15.4911   -2.2559   -3.2691 C.ar      1 UNK        -0.1150 
     15 C11        16.0026   -1.2814   -4.1316 C.ar      1 UNK        -0.1150 
     16 C12        16.0562    0.0656   -3.7342 C.ar      1 UNK        -0.1150 
     17 C13        15.6099    0.4645   -2.4549 C.ar      1 UNK         0.0000 
     18 C14        15.4769    1.9021   -2.1038 C.ar      1 UNK        -0.2920 
     19 C15        15.1741    2.8578   -3.1038 C.ar      1 UNK         0.4730 
     20 N4         14.9081    4.2029   -2.7794 N.ar      1 UNK        -0.6780 
     21 C16        14.9471    4.6239   -1.4406 C.ar      1 UNK         0.4730 
     22 C17        15.2835    3.7048   -0.4343 C.ar      1 UNK        -0.1120 
     23 CL1        15.3415    4.2337    1.2070 Cl        1 UNK        -0.1800 
     24 C18        15.5532    2.3613   -0.7659 C.ar      1 UNK         0.2270 
     25 C19        15.2059   -0.5552   -1.5583 C.ar      1 UNK        -0.1150 
     26 C20        13.1177   -2.6879   -0.7028 C.2       1 UNK         0.6225 
     27 O1         12.1860   -2.7189   -1.5139 O.2       1 UNK        -0.5000 
     28 H1         11.3564   -1.1585    1.0940 H         1 UNK         0.0600 
     29 H2         10.9228   -2.8632    0.9660 H         1 UNK         0.0600 
     30 H3         11.7457   -2.2845    2.4102 H         1 UNK         0.0600 
     31 H4         15.3986   -2.4098    2.9173 H         1 UNK         0.4600 
     32 H5         16.1343   -2.9236    0.6157 H         1 UNK         0.3451 
     33 H6         12.9545   -4.8589   -2.3622 H         1 UNK         0.1150 
     34 H7         13.4594   -7.1946   -2.8895 H         1 UNK         0.1150 
     35 H8         15.6370   -8.1941   -2.2497 H         1 UNK         0.1150 
     36 H9         17.3491   -6.7871   -1.1047 H         1 UNK         0.1150 
     37 H10        16.8253   -4.4835   -0.4914 H         1 UNK         0.1150 
     38 H11        15.3984   -3.2605   -3.6577 H         1 UNK         0.1150 
     39 H12        16.3224   -1.5573   -5.1266 H         1 UNK         0.1150 
     40 H13        16.4096    0.7896   -4.4532 H         1 UNK         0.1150 
     41 H14        15.0714    2.5603   -4.1373 H         1 UNK         0.0120 
     42 H15        14.7176    5.6617   -1.2559 H         1 UNK         0.0120 
     43 H16        15.8042    1.6824    0.0306 H         1 UNK         0.0650 
     44 H17        14.8596   -0.2713   -0.5785 H         1 UNK         0.1150 
     45 H18        13.7416   -2.0408    3.2608 H         1 UNK         0.4600 
@<TRIPOS>BOND
     1    1    2 1    
     2    1   28 1    
     3    1   29 1    
     4    1   30 1    
     5    2    3 1    
     6    2   26 am   BACKBONE|DICT|INTERRES
     7    3    4 ar   
     8    3    5 ar   
     9    4   31 1    
    10    4   45 1    
    11    5    6 1    
    12    5   32 1    
    13    6    7 1    
    14    6   13 1    
    15    6   26 1    
    16    7    8 ar   
    17    7   12 ar   
    18    8    9 ar   
    19    8   33 1    
    20    9   10 ar   
    21    9   34 1    
    22   10   11 ar   
    23   10   35 1    
    24   11   12 ar   
    25   11   36 1    
    26   12   37 1    
    27   13   14 ar   
    28   13   25 ar   
    29   14   15 ar   
    30   14   38 1    
    31   15   16 ar   
    32   15   39 1    
    33   16   17 ar   
    34   16   40 1    
    35   17   18 1    
    36   17   25 ar   
    37   18   19 ar   
    38   18   24 ar   
    39   19   20 ar   
    40   19   41 1    
    41   20   21 ar   
    42   21   22 ar   
    43   21   42 1    
    44   22   23 1    
    45   22   24 ar   
    46   24   43 1    
    47   25   44 1    
    48   26   27 2    
@<TRIPOS>SUBSTRUCTURE
     1 UNK         1 GROUP             0       ****    0 ROOT    
@<TRIPOS>MOLECULE
CAT-17h
42   45    1
SMALL
USER_CHARGES


@<TRIPOS>ATOM
      1 C1         11.6820   -2.1707    1.3298 C.3       1 UNK        -0.0090 
      2 N1         12.9759   -2.4302    0.6898 N.am      1 UNK        -0.0184 
      3 C18        14.1857   -2.5033    1.2745 C.cat     1 UNK         0.5687 
      4 N2         14.4361   -2.3451    2.5798 N.pl3     1 UNK        -0.9138 
      5 N3         15.1499   -2.7842    0.3899 N.pl3     1 UNK        -0.5282 
      6 C2         14.6008   -2.9822   -0.9565 C.3       1 UNK         0.4480 
      7 C3         15.1276   -1.9196   -1.9457 C.ar      1 UNK        -0.1150 
      8 C4         15.4911   -2.2559   -3.2691 C.ar      1 UNK        -0.1150 
      9 C5         16.0026   -1.2814   -4.1316 C.ar      1 UNK        -0.1150 
     10 C6         16.0562    0.0656   -3.7342 C.ar      1 UNK        -0.1150 
     11 C7         15.6099    0.4645   -2.4549 C.ar      1 UNK         0.0000 
     12 C8         15.4769    1.9021   -2.1038 C.ar      1 UNK        -0.2920 
     13 C9         15.1741    2.8578   -3.1038 C.ar      1 UNK         0.4730 
     14 N4         14.9081    4.2029   -2.7794 N.ar      1 UNK        -0.6780 
     15 C10        14.9471    4.6239   -1.4406 C.ar      1 UNK         0.4730 
     16 C11        15.2835    3.7048   -0.4343 C.ar      1 UNK        -0.1120 
     17 CL1        15.3415    4.2337    1.2070 Cl        1 UNK        -0.1800 
     18 C12        15.5532    2.3613   -0.7659 C.ar      1 UNK         0.2270 
     19 C13        15.2059   -0.5552   -1.5583 C.ar      1 UNK        -0.1150 
     20 C14        14.7974   -4.3874   -1.4430 C.3       1 UNK        -0.0600 
     21 C15        16.0547   -5.1279   -1.0470 C.3       1 UNK        -0.1200 
     22 C16        14.7243   -5.5220   -0.4464 C.3       1 UNK        -0.1200 
     23 C17        13.1177   -2.6879   -0.7028 C.2       1 UNK         0.6225 
     24 O1         12.1860   -2.7189   -1.5139 O.2       1 UNK        -0.5000 
     25 H1         10.9228   -2.8632    0.9660 H         1 UNK         0.0600 
     26 H2         11.7457   -2.2845    2.4102 H         1 UNK         0.0600 
     27 H3         11.3564   -1.1585    1.0940 H         1 UNK         0.0600 
     28 H4         15.3986   -2.4098    2.9173 H         1 UNK         0.4600 
     29 H5         16.1437   -2.8595    0.6171 H         1 UNK         0.3451 
     30 H6         15.3778   -3.2564   -3.6609 H         1 UNK         0.1150 
     31 H7         16.3401   -1.5579   -5.1213 H         1 UNK         0.1150 
     32 H8         16.4433    0.7837   -4.4399 H         1 UNK         0.1150 
     33 H9         15.0981    2.5651   -4.1396 H         1 UNK         0.0120 
     34 H10        14.7147    5.6625   -1.2555 H         1 UNK         0.0120 
     35 H11        15.8236    1.6854    0.0270 H         1 UNK         0.0650 
     36 H12        14.8989   -0.2743   -0.5622 H         1 UNK         0.1150 
     37 H13        14.4442   -4.5084   -2.4644 H         1 UNK         0.0600 
     38 H14        16.4877   -5.8060   -1.7799 H         1 UNK         0.0600 
     39 H15        16.7729   -4.6409   -0.3905 H         1 UNK         0.0600 
     40 H16        14.5742   -5.2868    0.6009 H         1 UNK         0.0600 
     41 H17        14.2697   -6.4539   -0.7786 H         1 UNK         0.0600 
     42 H18        13.7416   -2.0408    3.2608 H         1 UNK         0.4600 
@<TRIPOS>BOND
     1    1    2 1    
     2    1   25 1    
     3    1   26 1    
     4    1   27 1    
     5    2    3 1    
     6    2   23 am   BACKBONE|DICT|INTERRES
     7    3    4 ar   
     8    3    5 ar   
     9    4   28 1    
    10    4   42 1    
    11    5    6 1    
    12    5   29 1    
    13    6    7 1    
    14    6   20 1    
    15    6   23 1    
    16    7    8 ar   
    17    7   19 ar   
    18    8    9 ar   
    19    8   30 1    
    20    9   10 ar   
    21    9   31 1    
    22   10   11 ar   
    23   10   32 1    
    24   11   12 1    
    25   11   19 ar   
    26   12   13 ar   
    27   12   18 ar   
    28   13   14 ar   
    29   13   33 1    
    30   14   15 ar   
    31   15   16 ar   
    32   15   34 1    
    33   16   17 1    
    34   16   18 ar   
    35   18   35 1    
    36   19   36 1    
    37   20   21 1    
    38   20   22 1    
    39   20   37 1    
    40   21   22 1    
    41   21   38 1    
    42   21   39 1    
    43   22   40 1    
    44   22   41 1    
    45   23   24 2    
@<TRIPOS>SUBSTRUCTURE
     1 UNK         1 GROUP             0       ****    0 ROOT    
@<TRIPOS>MOLECULE
CAT-4b
50   53    1
SMALL
USER_CHARGES


@<TRIPOS>ATOM
      1 C1         14.7488    5.2063    1.3474 C.3       1 UNK         0.1100 
      2 O1         15.3737    4.0152    0.9033 O.3       1 UNK        -0.2850 
      3 C23        15.2835    3.7048   -0.4343 C.ar      1 UNK         0.0850 
      4 C2         14.9471    4.6239   -1.4406 C.ar      1 UNK        -0.1150 
      5 C3         14.9081    4.2029   -2.7794 C.ar      1 UNK        -0.1150 
      6 C4         15.1741    2.8578   -3.1038 C.ar      1 UNK        -0.1150 
      7 C5         15.4769    1.9021   -2.1038 C.ar      1 UNK         0.0000 
      8 C6         15.6099    0.4645   -2.4549 C.ar      1 UNK         0.0000 
      9 C7         16.0562    0.0656   -3.7342 C.ar      1 UNK        -0.1150 
     10 C8         16.0026   -1.2814   -4.1316 C.ar      1 UNK        -0.1150 
     11 C9         15.4911   -2.2559   -3.2691 C.ar      1 UNK        -0.1150 
     12 C10        15.1276   -1.9196   -1.9457 C.ar      1 UNK        -0.1150 
     13 C11        14.6008   -2.9822   -0.9565 C.3       1 UNK         0.5630 
     14 C12        14.8601   -4.4483   -1.3759 C.ar      1 UNK        -0.1150 
     15 C13        16.0961   -5.0428   -1.0437 C.ar      1 UNK        -0.1150 
     16 C14        16.3957   -6.3717   -1.3851 C.ar      1 UNK        -0.1150 
     17 C15        15.4382   -7.1531   -2.0424 C.ar      1 UNK        -0.1150 
     18 C16        14.2010   -6.5878   -2.3927 C.ar      1 UNK        -0.1150 
     19 C17        13.9201   -5.2434   -2.0756 C.ar      1 UNK        -0.1150 
     20 N1         15.1499   -2.7842    0.3899 N.pl3     1 UNK        -0.5282 
     21 C18        14.1857   -2.5033    1.2745 C.cat     1 UNK         0.5687 
     22 N2         14.4361   -2.3451    2.5798 N.pl3     1 UNK        -0.9138 
     23 N3         12.9759   -2.4302    0.6898 N.am      1 UNK        -0.0184 
     24 C19        11.6820   -2.1707    1.3298 C.3       1 UNK        -0.0090 
     25 C20        13.1177   -2.6879   -0.7028 C.2       1 UNK         0.6225 
     26 O2         12.1860   -2.7189   -1.5139 O.2       1 UNK        -0.5000 
     27 C21        15.2059   -0.5552   -1.5583 C.ar      1 UNK        -0.1150 
     28 C22        15.5532    2.3613   -0.7659 C.ar      1 UNK        -0.1150 
     29 H1         14.7899    5.2574    2.4354 H         1 UNK         0.0300 
     30 H2         15.2354    6.0939    0.9560 H         1 UNK         0.0300 
     31 H3         13.7039    5.2264    1.0454 H         1 UNK         0.0300 
     32 H4         14.7315    5.6571   -1.2141 H         1 UNK         0.1150 
     33 H5         14.6524    4.9177   -3.5462 H         1 UNK         0.1150 
     34 H6         15.0973    2.5429   -4.1343 H         1 UNK         0.1150 
     35 H7         16.4473    0.7988   -4.4215 H         1 UNK         0.1150 
     36 H8         16.3515   -1.5558   -5.1171 H         1 UNK         0.1150 
     37 H9         15.3748   -3.2646   -3.6421 H         1 UNK         0.1150 
     38 H10        16.8295   -4.4817   -0.4943 H         1 UNK         0.1150 
     39 H11        17.3544   -6.7922   -1.1147 H         1 UNK         0.1150 
     40 H12        15.6560   -8.1846   -2.2581 H         1 UNK         0.1150 
     41 H13        13.4656   -7.1911   -2.9033 H         1 UNK         0.1150 
     42 H14        12.9633   -4.8465   -2.3639 H         1 UNK         0.1150 
     43 H15        16.1468   -2.8581    0.5924 H         1 UNK         0.3451 
     44 H16        13.7416   -2.0408    3.2608 H         1 UNK         0.4600 
     45 H17        10.9228   -2.8632    0.9660 H         1 UNK         0.0600 
     46 H18        11.7457   -2.2845    2.4102 H         1 UNK         0.0600 
     47 H19        11.3564   -1.1585    1.0940 H         1 UNK         0.0600 
     48 H20        14.9065   -0.2715   -0.5606 H         1 UNK         0.1150 
     49 H21        15.7979    1.6897    0.0378 H         1 UNK         0.1150 
     50 H22        15.3986   -2.4098    2.9173 H         1 UNK         0.4600 
@<TRIPOS>BOND
     1    1    2 1    
     2    1   29 1    
     3    1   30 1    
     4    1   31 1    
     5    2    3 1    
     6    3    4 ar   
     7    3   28 ar   
     8    4    5 ar   
     9    4   32 1    
    10    5    6 ar   
    11    5   33 1    
    12    6    7 ar   
    13    6   34 1    
    14    7    8 1    
    15    7   28 ar   
    16    8    9 ar   
    17    8   27 ar   
    18    9   10 ar   
    19    9   35 1    
    20   10   11 ar   
    21   10   36 1    
    22   11   12 ar   
    23   11   37 1    
    24   12   13 1    
    25   12   27 ar   
    26   13   14 1    
    27   13   20 1    
    28   13   25 1    
    29   14   15 ar   
    30   14   19 ar   
    31   15   16 ar   
    32   15   38 1    
    33   16   17 ar   
    34   16   39 1    
    35   17   18 ar   
    36   17   40 1    
    37   18   19 ar   
    38   18   41 1    
    39   19   42 1    
    40   20   21 ar   
    41   20   43 1    
    42   21   22 ar   
    43   21   23 1    
    44   22   44 1    
    45   22   50 1    
    46   23   24 1    
    47   23   25 am   BACKBONE|DICT|INTERRES
    48   24   45 1    
    49   24   46 1    
    50   24   47 1    
    51   25   26 2    
    52   27   48 1    
    53   28   49 1    
@<TRIPOS>SUBSTRUCTURE
     1 UNK         1 GROUP             0       ****    0 ROOT    
@<TRIPOS>MOLECULE
CAT-17g
42   45    1
SMALL
USER_CHARGES


@<TRIPOS>ATOM
      1 C1         11.6820   -2.1707    1.3298 C.3       1 UNK        -0.0090 
      2 N1         12.9759   -2.4302    0.6898 N.am      1 UNK        -0.0184 
      3 C18        14.1857   -2.5033    1.2745 C.cat     1 UNK         0.5687 
      4 N2         14.4361   -2.3451    2.5798 N.pl3     1 UNK        -0.9138 
      5 N3         15.1499   -2.7842    0.3899 N.pl3     1 UNK        -0.5282 
      6 C2         14.6008   -2.9822   -0.9565 C.3       1 UNK         0.4480 
      7 C3         15.1276   -1.9196   -1.9457 C.ar      1 UNK        -0.1150 
      8 C4         15.4911   -2.2559   -3.2691 C.ar      1 UNK        -0.1150 
      9 C5         16.0026   -1.2814   -4.1316 C.ar      1 UNK        -0.1150 
     10 C6         16.0562    0.0656   -3.7342 C.ar      1 UNK        -0.1150 
     11 C7         15.6099    0.4645   -2.4549 C.ar      1 UNK         0.0000 
     12 C8         15.4769    1.9021   -2.1038 C.ar      1 UNK        -0.2920 
     13 C9         15.1741    2.8578   -3.1038 C.ar      1 UNK         0.4730 
     14 N4         14.9081    4.2029   -2.7794 N.ar      1 UNK        -0.6780 
     15 C10        14.9471    4.6239   -1.4406 C.ar      1 UNK         0.4730 
     16 C11        15.2835    3.7048   -0.4343 C.ar      1 UNK        -0.0720 
     17 F1         15.3481    4.0812    0.8654 F         1 UNK        -0.2200 
     18 C12        15.5532    2.3613   -0.7659 C.ar      1 UNK         0.2270 
     19 C13        15.2059   -0.5552   -1.5583 C.ar      1 UNK        -0.1150 
     20 C14        14.7974   -4.3874   -1.4430 C.3       1 UNK        -0.0600 
     21 C15        16.0547   -5.1279   -1.0470 C.3       1 UNK        -0.1200 
     22 C16        14.7243   -5.5220   -0.4464 C.3       1 UNK        -0.1200 
     23 C17        13.1177   -2.6879   -0.7028 C.2       1 UNK         0.6225 
     24 O1         12.1860   -2.7189   -1.5139 O.2       1 UNK        -0.5000 
     25 H1         10.9228   -2.8632    0.9660 H         1 UNK         0.0600 
     26 H2         11.7457   -2.2845    2.4102 H         1 UNK         0.0600 
     27 H3         11.3564   -1.1585    1.0940 H         1 UNK         0.0600 
     28 H4         15.3986   -2.4098    2.9173 H         1 UNK         0.4600 
     29 H5         16.1461   -2.8327    0.6141 H         1 UNK         0.3451 
     30 H6         15.3797   -3.2574   -3.6589 H         1 UNK         0.1150 
     31 H7         16.3445   -1.5564   -5.1199 H         1 UNK         0.1150 
     32 H8         16.4450    0.7851   -4.4375 H         1 UNK         0.1150 
     33 H9         15.1004    2.5666   -4.1403 H         1 UNK         0.0120 
     34 H10        14.7133    5.6617   -1.2534 H         1 UNK         0.0120 
     35 H11        15.8262    1.6883    0.0275 H         1 UNK         0.0650 
     36 H12        14.9032   -0.2774   -0.5597 H         1 UNK         0.1150 
     37 H13        14.4423   -4.5093   -2.4639 H         1 UNK         0.0600 
     38 H14        16.4880   -5.8059   -1.7799 H         1 UNK         0.0600 
     39 H15        16.7728   -4.6403   -0.3907 H         1 UNK         0.0600 
     40 H16        14.5738   -5.2875    0.6013 H         1 UNK         0.0600 
     41 H17        14.2698   -6.4538   -0.7788 H         1 UNK         0.0600 
     42 H18        13.7416   -2.0408    3.2608 H         1 UNK         0.4600 
@<TRIPOS>BOND
     1    1    2 1    
     2    1   25 1    
     3    1   26 1    
     4    1   27 1    
     5    2    3 1    
     6    2   23 am   BACKBONE|DICT|INTERRES
     7    3    4 ar   
     8    3    5 ar   
     9    4   28 1    
    10    4   42 1    
    11    5    6 1    
    12    5   29 1    
    13    6    7 1    
    14    6   20 1    
    15    6   23 1    
    16    7    8 ar   
    17    7   19 ar   
    18    8    9 ar   
    19    8   30 1    
    20    9   10 ar   
    21    9   31 1    
    22   10   11 ar   
    23   10   32 1    
    24   11   12 1    
    25   11   19 ar   
    26   12   13 ar   
    27   12   18 ar   
    28   13   14 ar   
    29   13   33 1    
    30   14   15 ar   
    31   15   16 ar   
    32   15   34 1    
    33   16   18 ar   
    34   16   17 1    
    35   18   35 1    
    36   19   36 1    
    37   20   21 1    
    38   20   22 1    
    39   20   37 1    
    40   21   22 1    
    41   21   38 1    
    42   21   39 1    
    43   22   40 1    
    44   22   41 1    
    45   23   24 2    
@<TRIPOS>SUBSTRUCTURE
     1 UNK         1 GROUP             0       ****    0 ROOT    
@<TRIPOS>MOLECULE
CAT-4d
53   56    1
SMALL
USER_CHARGES


@<TRIPOS>ATOM
      1 C1         15.1418    5.4819    2.8140 C.3       1 UNK        -0.1800 
      2 C24        14.8461    5.2562    1.3319 C.3       1 UNK         0.1400 
      3 O1         15.3715    4.0103    0.9076 O.3       1 UNK        -0.2850 
      4 C2         15.2835    3.7048   -0.4343 C.ar      1 UNK         0.0850 
      5 C3         14.9471    4.6239   -1.4406 C.ar      1 UNK        -0.1150 
      6 C4         14.9081    4.2029   -2.7794 C.ar      1 UNK        -0.1150 
      7 C5         15.1741    2.8578   -3.1038 C.ar      1 UNK        -0.1150 
      8 C6         15.4769    1.9021   -2.1038 C.ar      1 UNK         0.0000 
      9 C7         15.6099    0.4645   -2.4549 C.ar      1 UNK         0.0000 
     10 C8         16.0562    0.0656   -3.7342 C.ar      1 UNK        -0.1150 
     11 C9         16.0026   -1.2814   -4.1316 C.ar      1 UNK        -0.1150 
     12 C10        15.4911   -2.2559   -3.2691 C.ar      1 UNK        -0.1150 
     13 C11        15.1276   -1.9196   -1.9457 C.ar      1 UNK        -0.1150 
     14 C12        14.6008   -2.9822   -0.9565 C.3       1 UNK         0.5630 
     15 C13        14.8601   -4.4483   -1.3759 C.ar      1 UNK        -0.1150 
     16 C14        13.9201   -5.2434   -2.0756 C.ar      1 UNK        -0.1150 
     17 C15        14.2010   -6.5878   -2.3927 C.ar      1 UNK        -0.1150 
     18 C16        15.4382   -7.1531   -2.0424 C.ar      1 UNK        -0.1150 
     19 C17        16.3957   -6.3717   -1.3851 C.ar      1 UNK        -0.1150 
     20 C18        16.0961   -5.0428   -1.0437 C.ar      1 UNK        -0.1150 
     21 N1         15.1499   -2.7842    0.3899 N.pl3     1 UNK        -0.5282 
     22 C19        14.1857   -2.5033    1.2745 C.cat     1 UNK         0.5687 
     23 N2         14.4361   -2.3451    2.5798 N.pl3     1 UNK        -0.9138 
     24 N3         12.9759   -2.4302    0.6898 N.am      1 UNK        -0.0184 
     25 C20        11.6820   -2.1707    1.3298 C.3       1 UNK        -0.0090 
     26 C21        13.1177   -2.6879   -0.7028 C.2       1 UNK         0.6225 
     27 O2         12.1860   -2.7189   -1.5139 O.2       1 UNK        -0.5000 
     28 C22        15.2059   -0.5552   -1.5583 C.ar      1 UNK        -0.1150 
     29 C23        15.5532    2.3613   -0.7659 C.ar      1 UNK        -0.1150 
     30 H1         14.7475    6.4393    3.1505 H         1 UNK         0.0600 
     31 H2         14.6886    4.7057    3.4243 H         1 UNK         0.0600 
     32 H3         16.2123    5.4704    3.0143 H         1 UNK         0.0600 
     33 H4         13.7734    5.2740    1.1527 H         1 UNK         0.0300 
     34 H5         15.2882    6.0706    0.7675 H         1 UNK         0.0300 
     35 H6         14.7163    5.6558   -1.2260 H         1 UNK         0.1150 
     36 H7         14.6533    4.9145   -3.5504 H         1 UNK         0.1150 
     37 H8         15.1008    2.5409   -4.1344 H         1 UNK         0.1150 
     38 H9         16.4486    0.8003   -4.4204 H         1 UNK         0.1150 
     39 H10        16.3505   -1.5542   -5.1176 H         1 UNK         0.1150 
     40 H11        15.3775   -3.2643   -3.6436 H         1 UNK         0.1150 
     41 H12        12.9629   -4.8471   -2.3644 H         1 UNK         0.1150 
     42 H13        13.4641   -7.1906   -2.9021 H         1 UNK         0.1150 
     43 H14        15.6589   -8.1837   -2.2583 H         1 UNK         0.1150 
     44 H15        17.3556   -6.7912   -1.1176 H         1 UNK         0.1150 
     45 H16        16.8319   -4.4803   -0.4985 H         1 UNK         0.1150 
     46 H17        16.1470   -2.8542    0.5925 H         1 UNK         0.3451 
     47 H18        13.7416   -2.0408    3.2608 H         1 UNK         0.4600 
     48 H19        10.9228   -2.8632    0.9660 H         1 UNK         0.0600 
     49 H20        11.7457   -2.2845    2.4102 H         1 UNK         0.0600 
     50 H21        11.3564   -1.1585    1.0940 H         1 UNK         0.0600 
     51 H22        14.9048   -0.2663   -0.5618 H         1 UNK         0.1150 
     52 H23        15.8021    1.6842    0.0337 H         1 UNK         0.1150 
     53 H24        15.3986   -2.4098    2.9173 H         1 UNK         0.4600 
@<TRIPOS>BOND
     1    1    2 1    
     2    1   30 1    
     3    1   31 1    
     4    1   32 1    
     5    2    3 1    
     6    2   33 1    
     7    2   34 1    
     8    3    4 1    
     9    4    5 ar   
    10    4   29 ar   
    11    5    6 ar   
    12    5   35 1    
    13    6    7 ar   
    14    6   36 1    
    15    7    8 ar   
    16    7   37 1    
    17    8    9 1    
    18    8   29 ar   
    19    9   10 ar   
    20    9   28 ar   
    21   10   11 ar   
    22   10   38 1    
    23   11   12 ar   
    24   11   39 1    
    25   12   13 ar   
    26   12   40 1    
    27   13   14 1    
    28   13   28 ar   
    29   14   15 1    
    30   14   21 1    
    31   14   26 1    
    32   15   16 ar   
    33   15   20 ar   
    34   16   17 ar   
    35   16   41 1    
    36   17   18 ar   
    37   17   42 1    
    38   18   19 ar   
    39   18   43 1    
    40   19   20 ar   
    41   19   44 1    
    42   20   45 1    
    43   21   22 ar   
    44   21   46 1    
    45   22   23 ar   
    46   22   24 1    
    47   23   47 1    
    48   23   53 1    
    49   24   25 1    
    50   24   26 am   BACKBONE|DICT|INTERRES
    51   25   48 1    
    52   25   49 1    
    53   25   50 1    
    54   26   27 2    
    55   28   51 1    
    56   29   52 1    
@<TRIPOS>SUBSTRUCTURE
     1 UNK         1 GROUP             0       ****    0 ROOT    
@<TRIPOS>MOLECULE
CAT-4m
48   51    1
SMALL
USER_CHARGES


@<TRIPOS>ATOM
      1 C1         15.3389    4.1430    1.0155 C.3       1 UNK        -0.0170 
      2 C22        15.2835    3.7048   -0.4343 C.ar      1 UNK        -0.4550 
      3 C2         14.9471    4.6239   -1.4406 C.ar      1 UNK         0.4730 
      4 N1         14.9081    4.2029   -2.7794 N.ar      1 UNK        -0.6780 
      5 C3         15.1741    2.8578   -3.1038 C.ar      1 UNK         0.4730 
      6 C4         15.4769    1.9021   -2.1038 C.ar      1 UNK        -0.2920 
      7 C5         15.6099    0.4645   -2.4549 C.ar      1 UNK         0.0000 
      8 C6         16.0562    0.0656   -3.7342 C.ar      1 UNK        -0.1150 
      9 C7         16.0026   -1.2814   -4.1316 C.ar      1 UNK        -0.1150 
     10 C8         15.4911   -2.2559   -3.2691 C.ar      1 UNK        -0.1150 
     11 C9         15.1276   -1.9196   -1.9457 C.ar      1 UNK        -0.1150 
     12 C10        14.6008   -2.9822   -0.9565 C.3       1 UNK         0.5630 
     13 C11        14.8601   -4.4483   -1.3759 C.ar      1 UNK        -0.1150 
     14 C12        13.9201   -5.2434   -2.0756 C.ar      1 UNK        -0.1150 
     15 C13        14.2010   -6.5878   -2.3927 C.ar      1 UNK        -0.1150 
     16 C14        15.4382   -7.1531   -2.0424 C.ar      1 UNK        -0.1150 
     17 C15        16.3957   -6.3717   -1.3851 C.ar      1 UNK        -0.1150 
     18 C16        16.0961   -5.0428   -1.0437 C.ar      1 UNK        -0.1150 
     19 N2         15.1499   -2.7842    0.3899 N.pl3     1 UNK        -0.5282 
     20 C17        14.1857   -2.5033    1.2745 C.cat     1 UNK         0.5687 
     21 N3         14.4361   -2.3451    2.5798 N.pl3     1 UNK        -0.9138 
     22 N4         12.9759   -2.4302    0.6898 N.am      1 UNK        -0.0184 
     23 C18        11.6820   -2.1707    1.3298 C.3       1 UNK        -0.0090 
     24 C19        13.1177   -2.6879   -0.7028 C.2       1 UNK         0.6225 
     25 O1         12.1860   -2.7189   -1.5139 O.2       1 UNK        -0.5000 
     26 C20        15.2059   -0.5552   -1.5583 C.ar      1 UNK        -0.1150 
     27 C21        15.5532    2.3613   -0.7659 C.ar      1 UNK         0.2270 
     28 H1         16.2402    3.7703    1.5028 H         1 UNK         0.0600 
     29 H2         15.3306    5.2305    1.1005 H         1 UNK         0.0600 
     30 H3         14.4707    3.7647    1.5516 H         1 UNK         0.0600 
     31 H4         14.7239    5.6530   -1.1996 H         1 UNK         0.0120 
     32 H5         15.0832    2.6192   -4.1524 H         1 UNK         0.0120 
     33 H6         16.4418    0.7938   -4.4293 H         1 UNK         0.1150 
     34 H7         16.3454   -1.5561   -5.1194 H         1 UNK         0.1150 
     35 H8         15.3749   -3.2633   -3.6457 H         1 UNK         0.1150 
     36 H9         12.9620   -4.8484   -2.3630 H         1 UNK         0.1150 
     37 H10        13.4646   -7.1911   -2.9017 H         1 UNK         0.1150 
     38 H11        15.6552   -8.1846   -2.2597 H         1 UNK         0.1150 
     39 H12        17.3555   -6.7913   -1.1174 H         1 UNK         0.1150 
     40 H13        16.8310   -4.4800   -0.4981 H         1 UNK         0.1150 
     41 H14        16.1458   -2.8684    0.5939 H         1 UNK         0.3451 
     42 H15        13.7416   -2.0408    3.2608 H         1 UNK         0.4600 
     43 H16        10.9228   -2.8632    0.9660 H         1 UNK         0.0600 
     44 H17        11.7457   -2.2845    2.4102 H         1 UNK         0.0600 
     45 H18        11.3564   -1.1585    1.0940 H         1 UNK         0.0600 
     46 H19        14.8989   -0.2738   -0.5622 H         1 UNK         0.1150 
     47 H20        15.8172    1.6643    0.0109 H         1 UNK         0.0650 
     48 H21        15.3986   -2.4098    2.9173 H         1 UNK         0.4600 
@<TRIPOS>BOND
     1    1    2 1    
     2    1   28 1    
     3    1   29 1    
     4    1   30 1    
     5    2    3 ar   
     6    2   27 ar   
     7    3    4 ar   
     8    3   31 1    
     9    4    5 ar   
    10    5    6 ar   
    11    5   32 1    
    12    6    7 1    
    13    6   27 ar   
    14    7    8 ar   
    15    7   26 ar   
    16    8    9 ar   
    17    8   33 1    
    18    9   10 ar   
    19    9   34 1    
    20   10   11 ar   
    21   10   35 1    
    22   11   12 1    
    23   11   26 ar   
    24   12   13 1    
    25   12   19 1    
    26   12   24 1    
    27   13   14 ar   
    28   13   18 ar   
    29   14   15 ar   
    30   14   36 1    
    31   15   16 ar   
    32   15   37 1    
    33   16   17 ar   
    34   16   38 1    
    35   17   18 ar   
    36   17   39 1    
    37   18   40 1    
    38   19   20 ar   
    39   19   41 1    
    40   20   21 ar   
    41   20   22 1    
    42   21   42 1    
    43   21   48 1    
    44   22   23 1    
    45   22   24 am   BACKBONE|DICT|INTERRES
    46   23   43 1    
    47   23   44 1    
    48   23   45 1    
    49   24   25 2    
    50   26   46 1    
    51   27   47 1    
@<TRIPOS>SUBSTRUCTURE
     1 UNK         1 GROUP             0       ****    0 ROOT    
@<TRIPOS>MOLECULE
CAT-13e
46   49    1
SMALL
USER_CHARGES


@<TRIPOS>ATOM
      1 C1         11.6820   -2.1707    1.3298 C.3       1 UNK        -0.0090 
      2 N1         12.9759   -2.4302    0.6898 N.am      1 UNK        -0.0184 
      3 C20        14.1857   -2.5033    1.2745 C.cat     1 UNK         0.5687 
      4 N2         14.4361   -2.3451    2.5798 N.pl3     1 UNK        -0.9138 
      5 N3         15.1499   -2.7842    0.3899 N.pl3     1 UNK        -0.5282 
      6 C2         14.6008   -2.9822   -0.9565 C.3       1 UNK         0.4480 
      7 C3         15.1276   -1.9196   -1.9457 C.ar      1 UNK        -0.1150 
      8 C4         15.4911   -2.2559   -3.2691 C.ar      1 UNK        -0.1150 
      9 C5         16.0026   -1.2814   -4.1316 C.ar      1 UNK        -0.1150 
     10 C6         16.0562    0.0656   -3.7342 C.ar      1 UNK        -0.1150 
     11 C7         15.6099    0.4645   -2.4549 C.ar      1 UNK         0.0000 
     12 C8         15.4769    1.9021   -2.1038 C.ar      1 UNK         0.0000 
     13 C9         15.1741    2.8578   -3.1038 C.ar      1 UNK        -0.1150 
     14 C10        14.9081    4.2029   -2.7794 C.ar      1 UNK        -0.1150 
     15 C11        14.9471    4.6239   -1.4406 C.ar      1 UNK        -0.1150 
     16 C12        15.2835    3.7048   -0.4343 C.ar      1 UNK         0.1800 
     17 CL1        15.3415    4.2337    1.2070 Cl        1 UNK        -0.1800 
     18 C13        15.5532    2.3613   -0.7659 C.ar      1 UNK        -0.1150 
     19 C14        15.2059   -0.5552   -1.5583 C.ar      1 UNK        -0.1150 
     20 C15        14.7570   -4.4498   -1.4315 C.3       1 UNK        -0.0600 
     21 C16        16.1081   -5.1870   -1.4050 C.3       1 UNK        -0.1200 
     22 C17        15.3386   -6.4897   -1.1730 C.3       1 UNK        -0.1200 
     23 C18        14.2004   -5.6323   -0.6120 C.3       1 UNK        -0.1200 
     24 C19        13.1177   -2.6879   -0.7028 C.2       1 UNK         0.6225 
     25 O1         12.1860   -2.7189   -1.5139 O.2       1 UNK        -0.5000 
     26 H1         10.9228   -2.8632    0.9660 H         1 UNK         0.0600 
     27 H2         11.3564   -1.1585    1.0940 H         1 UNK         0.0600 
     28 H3         11.7457   -2.2845    2.4102 H         1 UNK         0.0600 
     29 H4         13.7416   -2.0408    3.2608 H         1 UNK         0.4600 
     30 H5         16.1474   -2.7178    0.5903 H         1 UNK         0.3451 
     31 H6         15.3673   -3.2495   -3.6711 H         1 UNK         0.1150 
     32 H7         16.3282   -1.5591   -5.1249 H         1 UNK         0.1150 
     33 H8         16.4413    0.7930   -4.4303 H         1 UNK         0.1150 
     34 H9         15.0962    2.5513   -4.1367 H         1 UNK         0.1150 
     35 H10        14.6476    4.9109   -3.5523 H         1 UNK         0.1150 
     36 H11        14.7183    5.6485   -1.1835 H         1 UNK         0.1150 
     37 H12        15.8184    1.6761    0.0217 H         1 UNK         0.1150 
     38 H13        14.8813   -0.2588   -0.5721 H         1 UNK         0.1150 
     39 H14        14.3342   -4.5527   -2.4340 H         1 UNK         0.0600 
     40 H15        16.7326   -4.9155   -0.5520 H         1 UNK         0.0600 
     41 H16        16.6677   -5.1665   -2.3398 H         1 UNK         0.0600 
     42 H17        15.0706   -6.9974   -2.1026 H         1 UNK         0.0600 
     43 H18        15.7981   -7.1723   -0.4568 H         1 UNK         0.0600 
     44 H19        14.2791   -5.4934    0.4681 H         1 UNK         0.0600 
     45 H20        13.2022   -5.9627   -0.9040 H         1 UNK         0.0600 
     46 H21        15.3986   -2.4098    2.9173 H         1 UNK         0.4600 
@<TRIPOS>BOND
     1    1    2 1    
     2    1   26 1    
     3    1   27 1    
     4    1   28 1    
     5    2    3 1    
     6    2   24 am   BACKBONE|DICT|INTERRES
     7    3    4 ar   
     8    3    5 ar   
     9    4   29 1    
    10    4   46 1    
    11    5    6 1    
    12    5   30 1    
    13    6    7 1    
    14    6   20 1    
    15    6   24 1    
    16    7    8 ar   
    17    7   19 ar   
    18    8    9 ar   
    19    8   31 1    
    20    9   10 ar   
    21    9   32 1    
    22   10   11 ar   
    23   10   33 1    
    24   11   12 1    
    25   11   19 ar   
    26   12   13 ar   
    27   12   18 ar   
    28   13   14 ar   
    29   13   34 1    
    30   14   15 ar   
    31   14   35 1    
    32   15   16 ar   
    33   15   36 1    
    34   16   17 1    
    35   16   18 ar   
    36   18   37 1    
    37   19   38 1    
    38   20   21 1    
    39   20   23 1    
    40   20   39 1    
    41   21   22 1    
    42   21   40 1    
    43   21   41 1    
    44   22   23 1    
    45   22   42 1    
    46   22   43 1    
    47   23   44 1    
    48   23   45 1    
    49   24   25 2    
@<TRIPOS>SUBSTRUCTURE
     1 UNK         1 GROUP             0       ****    0 ROOT    
@<TRIPOS>MOLECULE
CAT-4n
46   49    1
SMALL
USER_CHARGES


@<TRIPOS>ATOM
      1 C1         11.6820   -2.1707    1.3298 C.3       1 UNK        -0.0090 
      2 N1         12.9759   -2.4302    0.6898 N.am      1 UNK        -0.0184 
      3 C22        14.1857   -2.5033    1.2745 C.cat     1 UNK         0.5687 
      4 N2         14.4361   -2.3451    2.5798 N.pl3     1 UNK        -0.9138 
      5 N3         15.1499   -2.7842    0.3899 N.pl3     1 UNK        -0.5282 
      6 C2         14.6008   -2.9822   -0.9565 C.3       1 UNK         0.5630 
      7 C3         14.8601   -4.4483   -1.3759 C.ar      1 UNK        -0.1150 
      8 C4         16.0961   -5.0428   -1.0437 C.ar      1 UNK        -0.1150 
      9 C5         16.3957   -6.3717   -1.3851 C.ar      1 UNK        -0.1150 
     10 C6         15.4382   -7.1531   -2.0424 C.ar      1 UNK        -0.1150 
     11 C7         14.2010   -6.5878   -2.3927 C.ar      1 UNK        -0.1150 
     12 C8         13.9201   -5.2434   -2.0756 C.ar      1 UNK        -0.1150 
     13 C9         15.1276   -1.9196   -1.9457 C.ar      1 UNK        -0.1150 
     14 C10        15.4911   -2.2559   -3.2691 C.ar      1 UNK        -0.1150 
     15 C11        16.0026   -1.2814   -4.1316 C.ar      1 UNK        -0.1150 
     16 C12        16.0562    0.0656   -3.7342 C.ar      1 UNK        -0.1150 
     17 C13        15.6099    0.4645   -2.4549 C.ar      1 UNK         0.0000 
     18 C14        15.4769    1.9021   -2.1038 C.ar      1 UNK        -0.2920 
     19 C15        15.1741    2.8578   -3.1038 C.ar      1 UNK         0.4730 
     20 N4         14.9081    4.2029   -2.7794 N.ar      1 UNK        -0.6780 
     21 C16        14.9471    4.6239   -1.4406 C.ar      1 UNK         0.4730 
     22 C17        15.2835    3.7048   -0.4343 C.ar      1 UNK        -0.2570 
     23 C18        15.3456    4.1329    0.9510 C.1       1 UNK         0.3950 
     24 N5         15.3974    4.4754    2.0532 N.1       1 UNK        -0.4300 
     25 C19        15.5532    2.3613   -0.7659 C.ar      1 UNK         0.2270 
     26 C20        15.2059   -0.5552   -1.5583 C.ar      1 UNK        -0.1150 
     27 C21        13.1177   -2.6879   -0.7028 C.2       1 UNK         0.6225 
     28 O1         12.1860   -2.7189   -1.5139 O.2       1 UNK        -0.5000 
     29 H1         11.3564   -1.1585    1.0940 H         1 UNK         0.0600 
     30 H2         10.9228   -2.8632    0.9660 H         1 UNK         0.0600 
     31 H3         11.7457   -2.2845    2.4102 H         1 UNK         0.0600 
     32 H4         15.3986   -2.4098    2.9173 H         1 UNK         0.4600 
     33 H5         16.1341   -2.9152    0.6195 H         1 UNK         0.3451 
     34 H6         16.8305   -4.4531   -0.5275 H         1 UNK         0.1150 
     35 H7         17.3584   -6.7776   -1.1205 H         1 UNK         0.1150 
     36 H8         15.6287   -8.1916   -2.2554 H         1 UNK         0.1150 
     37 H9         13.4573   -7.1930   -2.8962 H         1 UNK         0.1150 
     38 H10        12.9529   -4.8728   -2.3701 H         1 UNK         0.1150 
     39 H11        15.3987   -3.2599   -3.6546 H         1 UNK         0.1150 
     40 H12        16.3194   -1.5620   -5.1260 H         1 UNK         0.1150 
     41 H13        16.4077    0.7935   -4.4502 H         1 UNK         0.1150 
     42 H14        15.0756    2.5606   -4.1353 H         1 UNK         0.0120 
     43 H15        14.7118    5.6638   -1.2570 H         1 UNK         0.0120 
     44 H16        15.8050    1.6781    0.0291 H         1 UNK         0.0650 
     45 H17        14.8598   -0.2747   -0.5768 H         1 UNK         0.1150 
     46 H18        13.7416   -2.0408    3.2608 H         1 UNK         0.4600 
@<TRIPOS>BOND
     1    1    2 1    
     2    1   29 1    
     3    1   30 1    
     4    1   31 1    
     5    2    3 1    
     6    2   27 am   BACKBONE|DICT|INTERRES
     7    3    4 ar   
     8    3    5 ar   
     9    4   32 1    
    10    4   46 1    
    11    5    6 1    
    12    5   33 1    
    13    6    7 1    
    14    6   13 1    
    15    6   27 1    
    16    7    8 ar   
    17    7   12 ar   
    18    8    9 ar   
    19    8   34 1    
    20    9   10 ar   
    21    9   35 1    
    22   10   11 ar   
    23   10   36 1    
    24   11   12 ar   
    25   11   37 1    
    26   12   38 1    
    27   13   14 ar   
    28   13   26 ar   
    29   14   15 ar   
    30   14   39 1    
    31   15   16 ar   
    32   15   40 1    
    33   16   17 ar   
    34   16   41 1    
    35   17   18 1    
    36   17   26 ar   
    37   18   19 ar   
    38   18   25 ar   
    39   19   20 ar   
    40   19   42 1    
    41   20   21 ar   
    42   21   22 ar   
    43   21   43 1    
    44   22   23 1    
    45   22   25 ar   
    46   23   24 3    
    47   25   44 1    
    48   26   45 1    
    49   27   28 2    
@<TRIPOS>SUBSTRUCTURE
     1 UNK         1 GROUP             0       ****    0 ROOT    
@<TRIPOS>MOLECULE
CAT-4o
45   48    1
SMALL
USER_CHARGES


@<TRIPOS>ATOM
      1 C1         11.6820   -2.1707    1.3298 C.3       1 UNK        -0.0090 
      2 N1         12.9759   -2.4302    0.6898 N.am      1 UNK        -0.0184 
      3 C21        14.1857   -2.5033    1.2745 C.cat     1 UNK         0.5687 
      4 N2         14.4361   -2.3451    2.5798 N.pl3     1 UNK        -0.9138 
      5 N3         15.1499   -2.7842    0.3899 N.pl3     1 UNK        -0.5282 
      6 C2         14.6008   -2.9822   -0.9565 C.3       1 UNK         0.5630 
      7 C3         14.8601   -4.4483   -1.3759 C.ar      1 UNK        -0.1150 
      8 C4         16.0961   -5.0428   -1.0437 C.ar      1 UNK        -0.1150 
      9 C5         16.3957   -6.3717   -1.3851 C.ar      1 UNK        -0.1150 
     10 C6         15.4382   -7.1531   -2.0424 C.ar      1 UNK        -0.1150 
     11 C7         14.2010   -6.5878   -2.3927 C.ar      1 UNK        -0.1150 
     12 C8         13.9201   -5.2434   -2.0756 C.ar      1 UNK        -0.1150 
     13 C9         15.1276   -1.9196   -1.9457 C.ar      1 UNK        -0.1150 
     14 C10        15.4911   -2.2559   -3.2691 C.ar      1 UNK        -0.1150 
     15 C11        16.0026   -1.2814   -4.1316 C.ar      1 UNK        -0.1150 
     16 C12        16.0562    0.0656   -3.7342 C.ar      1 UNK        -0.1150 
     17 C13        15.6099    0.4645   -2.4549 C.ar      1 UNK         0.0000 
     18 C14        15.4769    1.9021   -2.1038 C.ar      1 UNK        -0.2920 
     19 C15        15.1741    2.8578   -3.1038 C.ar      1 UNK         0.4730 
     20 N4         14.9081    4.2029   -2.7794 N.ar      1 UNK        -0.6780 
     21 C16        14.9471    4.6239   -1.4406 C.ar      1 UNK         0.4730 
     22 C17        15.2835    3.7048   -0.4343 C.ar      1 UNK        -0.0720 
     23 F1         15.3481    4.0812    0.8654 F         1 UNK        -0.2200 
     24 C18        15.5532    2.3613   -0.7659 C.ar      1 UNK         0.2270 
     25 C19        15.2059   -0.5552   -1.5583 C.ar      1 UNK        -0.1150 
     26 C20        13.1177   -2.6879   -0.7028 C.2       1 UNK         0.6225 
     27 O1         12.1860   -2.7189   -1.5139 O.2       1 UNK        -0.5000 
     28 H1         11.7457   -2.2845    2.4102 H         1 UNK         0.0600 
     29 H2         11.3564   -1.1585    1.0940 H         1 UNK         0.0600 
     30 H3         10.9228   -2.8632    0.9660 H         1 UNK         0.0600 
     31 H4         15.3986   -2.4098    2.9173 H         1 UNK         0.4600 
     32 H5         16.1420   -2.8514    0.6167 H         1 UNK         0.3451 
     33 H6         16.8308   -4.4814   -0.4955 H         1 UNK         0.1150 
     34 H7         17.3542   -6.7925   -1.1144 H         1 UNK         0.1150 
     35 H8         15.6598   -8.1835   -2.2573 H         1 UNK         0.1150 
     36 H9         13.4645   -7.1894   -2.9045 H         1 UNK         0.1150 
     37 H10        12.9637   -4.8472   -2.3685 H         1 UNK         0.1150 
     38 H11        15.3822   -3.2622   -3.6509 H         1 UNK         0.1150 
     39 H12        16.3506   -1.5516   -5.1180 H         1 UNK         0.1150 
     40 H13        16.4445    0.7874   -4.4349 H         1 UNK         0.1150 
     41 H14        15.1001    2.5673   -4.1407 H         1 UNK         0.0120 
     42 H15        14.7072    5.6597   -1.2522 H         1 UNK         0.0120 
     43 H16        15.8262    1.6886    0.0276 H         1 UNK         0.0650 
     44 H17        14.9080   -0.2786   -0.5578 H         1 UNK         0.1150 
     45 H18        13.7416   -2.0408    3.2608 H         1 UNK         0.4600 
@<TRIPOS>BOND
     1    1    2 1    
     2    1   28 1    
     3    1   29 1    
     4    1   30 1    
     5    2    3 1    
     6    2   26 am   BACKBONE|DICT|INTERRES
     7    3    4 ar   
     8    3    5 ar   
     9    4   31 1    
    10    4   45 1    
    11    5    6 1    
    12    5   32 1    
    13    6    7 1    
    14    6   13 1    
    15    6   26 1    
    16    7    8 ar   
    17    7   12 ar   
    18    8    9 ar   
    19    8   33 1    
    20    9   10 ar   
    21    9   34 1    
    22   10   11 ar   
    23   10   35 1    
    24   11   12 ar   
    25   11   36 1    
    26   12   37 1    
    27   13   14 ar   
    28   13   25 ar   
    29   14   15 ar   
    30   14   38 1    
    31   15   16 ar   
    32   15   39 1    
    33   16   17 ar   
    34   16   40 1    
    35   17   18 1    
    36   17   25 ar   
    37   18   19 ar   
    38   18   24 ar   
    39   19   20 ar   
    40   19   41 1    
    41   20   21 ar   
    42   21   22 ar   
    43   21   42 1    
    44   22   23 1    
    45   22   24 ar   
    46   24   43 1    
    47   25   44 1    
    48   26   27 2    
@<TRIPOS>SUBSTRUCTURE
     1 UNK         1 GROUP             0       ****    0 ROOT    
@<TRIPOS>MOLECULE
CAT-4a
46   49    1
SMALL
USER_CHARGES


@<TRIPOS>ATOM
      1 C1         11.6820   -2.1707    1.3298 C.3       1 UNK        -0.0090 
      2 N1         12.9759   -2.4302    0.6898 N.am      1 UNK        -0.0184 
      3 C22        14.1857   -2.5033    1.2745 C.cat     1 UNK         0.5687 
      4 N2         14.4361   -2.3451    2.5798 N.pl3     1 UNK        -0.9138 
      5 N3         15.1499   -2.7842    0.3899 N.pl3     1 UNK        -0.5282 
      6 C2         14.6008   -2.9822   -0.9565 C.3       1 UNK         0.5630 
      7 C3         14.8601   -4.4483   -1.3759 C.ar      1 UNK        -0.1150 
      8 C4         16.0961   -5.0428   -1.0437 C.ar      1 UNK        -0.1150 
      9 C5         16.3957   -6.3717   -1.3851 C.ar      1 UNK        -0.1150 
     10 C6         15.4382   -7.1531   -2.0424 C.ar      1 UNK        -0.1150 
     11 C7         14.2010   -6.5878   -2.3927 C.ar      1 UNK        -0.1150 
     12 C8         13.9201   -5.2434   -2.0756 C.ar      1 UNK        -0.1150 
     13 C9         15.1276   -1.9196   -1.9457 C.ar      1 UNK        -0.1150 
     14 C10        15.4911   -2.2559   -3.2691 C.ar      1 UNK        -0.1150 
     15 C11        16.0026   -1.2814   -4.1316 C.ar      1 UNK        -0.1150 
     16 C12        16.0562    0.0656   -3.7342 C.ar      1 UNK        -0.1150 
     17 C13        15.6099    0.4645   -2.4549 C.ar      1 UNK         0.0000 
     18 C14        15.4769    1.9021   -2.1038 C.ar      1 UNK         0.0000 
     19 C15        15.1741    2.8578   -3.1038 C.ar      1 UNK        -0.1150 
     20 C16        14.9081    4.2029   -2.7794 C.ar      1 UNK        -0.1150 
     21 C17        14.9471    4.6239   -1.4406 C.ar      1 UNK        -0.1150 
     22 C18        15.2835    3.7048   -0.4343 C.ar      1 UNK        -0.1150 
     23 C19        15.5532    2.3613   -0.7659 C.ar      1 UNK        -0.1150 
     24 C20        15.2059   -0.5552   -1.5583 C.ar      1 UNK        -0.1150 
     25 C21        13.1177   -2.6879   -0.7028 C.2       1 UNK         0.6225 
     26 O1         12.1860   -2.7189   -1.5139 O.2       1 UNK        -0.5000 
     27 H1         11.3564   -1.1585    1.0940 H         1 UNK         0.0600 
     28 H2         10.9228   -2.8632    0.9660 H         1 UNK         0.0600 
     29 H3         11.7457   -2.2845    2.4102 H         1 UNK         0.0600 
     30 H4         15.3986   -2.4098    2.9173 H         1 UNK         0.4600 
     31 H5         16.1413   -2.8591    0.6178 H         1 UNK         0.3451 
     32 H6         16.8291   -4.4818   -0.4939 H         1 UNK         0.1150 
     33 H7         17.3544   -6.7921   -1.1147 H         1 UNK         0.1150 
     34 H8         15.6542   -8.1850   -2.2589 H         1 UNK         0.1150 
     35 H9         13.4661   -7.1917   -2.9029 H         1 UNK         0.1150 
     36 H10        12.9629   -4.8469   -2.3626 H         1 UNK         0.1150 
     37 H11        15.3781   -3.2622   -3.6497 H         1 UNK         0.1150 
     38 H12        16.3482   -1.5557   -5.1187 H         1 UNK         0.1150 
     39 H13        16.4441    0.7955   -4.4268 H         1 UNK         0.1150 
     40 H14        15.0955    2.5540   -4.1372 H         1 UNK         0.1150 
     41 H15        14.6430    4.9105   -3.5497 H         1 UNK         0.1150 
     42 H16        14.7180    5.6487   -1.1836 H         1 UNK         0.1150 
     43 H17        15.3224    4.0213    0.5980 H         1 UNK         0.1150 
     44 H18        15.8171    1.6753    0.0194 H         1 UNK         0.1150 
     45 H19        14.9058   -0.2743   -0.5603 H         1 UNK         0.1150 
     46 H20        13.7416   -2.0408    3.2608 H         1 UNK         0.4600 
@<TRIPOS>BOND
     1    1    2 1    
     2    1   27 1    
     3    1   28 1    
     4    1   29 1    
     5    2    3 1    
     6    2   25 am   BACKBONE|DICT|INTERRES
     7    3    4 ar   
     8    3    5 ar   
     9    4   30 1    
    10    4   46 1    
    11    5    6 1    
    12    5   31 1    
    13    6    7 1    
    14    6   13 1    
    15    6   25 1    
    16    7    8 ar   
    17    7   12 ar   
    18    8    9 ar   
    19    8   32 1    
    20    9   10 ar   
    21    9   33 1    
    22   10   11 ar   
    23   10   34 1    
    24   11   12 ar   
    25   11   35 1    
    26   12   36 1    
    27   13   14 ar   
    28   13   24 ar   
    29   14   15 ar   
    30   14   37 1    
    31   15   16 ar   
    32   15   38 1    
    33   16   17 ar   
    34   16   39 1    
    35   17   18 1    
    36   17   24 ar   
    37   18   19 ar   
    38   18   23 ar   
    39   19   20 ar   
    40   19   40 1    
    41   20   21 ar   
    42   20   41 1    
    43   21   22 ar   
    44   21   42 1    
    45   22   23 ar   
    46   22   43 1    
    47   23   44 1    
    48   24   45 1    
    49   25   26 2    
@<TRIPOS>SUBSTRUCTURE
     1 UNK         1 GROUP             0       ****    0 ROOT    
@<TRIPOS>MOLECULE
CAT-13j
45   48    1
SMALL
USER_CHARGES


@<TRIPOS>ATOM
      1 C1         11.6820   -2.1707    1.3298 C.3       1 UNK        -0.0090 
      2 N1         12.9759   -2.4302    0.6898 N.am      1 UNK        -0.0184 
      3 C21        14.1857   -2.5033    1.2745 C.cat     1 UNK         0.5687 
      4 N2         14.4361   -2.3451    2.5798 N.pl3     1 UNK        -0.9138 
      5 N3         15.1499   -2.7842    0.3899 N.pl3     1 UNK        -0.5282 
      6 C2         14.6008   -2.9822   -0.9565 C.3       1 UNK         0.5630 
      7 C3         15.1276   -1.9196   -1.9457 C.ar      1 UNK        -0.1150 
      8 C4         15.4911   -2.2559   -3.2691 C.ar      1 UNK        -0.1150 
      9 C5         16.0026   -1.2814   -4.1316 C.ar      1 UNK        -0.1150 
     10 C6         16.0562    0.0656   -3.7342 C.ar      1 UNK        -0.1150 
     11 C7         15.6099    0.4645   -2.4549 C.ar      1 UNK         0.0000 
     12 C8         15.4769    1.9021   -2.1038 C.ar      1 UNK         0.0000 
     13 C9         15.1741    2.8578   -3.1038 C.ar      1 UNK        -0.1150 
     14 C10        14.9081    4.2029   -2.7794 C.ar      1 UNK        -0.1150 
     15 C11        14.9471    4.6239   -1.4406 C.ar      1 UNK        -0.1150 
     16 C12        15.2835    3.7048   -0.4343 C.ar      1 UNK         0.1800 
     17 CL1        15.3415    4.2337    1.2070 Cl        1 UNK        -0.1800 
     18 C13        15.5532    2.3613   -0.7659 C.ar      1 UNK        -0.1150 
     19 C14        15.2059   -0.5552   -1.5583 C.ar      1 UNK        -0.1150 
     20 C15        14.8601   -4.4483   -1.3759 C.ar      1 UNK         0.3700 
     21 C16        13.9201   -5.2434   -2.0756 C.ar      1 UNK        -0.4470 
     22 C17        14.2010   -6.5878   -2.3927 C.ar      1 UNK         0.2270 
     23 C18        15.4382   -7.1531   -2.0424 C.ar      1 UNK        -0.4470 
     24 C19        16.3957   -6.3717   -1.3851 C.ar      1 UNK         0.4730 
     25 N4         16.0961   -5.0428   -1.0437 N.ar      1 UNK        -0.6780 
     26 C20        13.1177   -2.6879   -0.7028 C.2       1 UNK         0.6225 
     27 O1         12.1860   -2.7189   -1.5139 O.2       1 UNK        -0.5000 
     28 H1         11.7457   -2.2845    2.4102 H         1 UNK         0.0600 
     29 H2         11.3564   -1.1585    1.0940 H         1 UNK         0.0600 
     30 H3         10.9228   -2.8632    0.9660 H         1 UNK         0.0600 
     31 H4         15.3986   -2.4098    2.9173 H         1 UNK         0.4600 
     32 H5         16.1220   -2.9867    0.6222 H         1 UNK         0.3451 
     33 H6         15.4035   -3.2635   -3.6593 H         1 UNK         0.1150 
     34 H7         16.3223   -1.5692   -5.1211 H         1 UNK         0.1150 
     35 H8         16.4077    0.7944   -4.4497 H         1 UNK         0.1150 
     36 H9         15.0801    2.5518   -4.1356 H         1 UNK         0.1150 
     37 H10        14.6416    4.9100   -3.5512 H         1 UNK         0.1150 
     38 H11        14.7194    5.6490   -1.1813 H         1 UNK         0.1150 
     39 H12        15.7991    1.6764    0.0282 H         1 UNK         0.1150 
     40 H13        14.8611   -0.2678   -0.5772 H         1 UNK         0.1150 
     41 H14        12.9751   -4.8285   -2.3724 H         1 UNK         0.1550 
     42 H15        13.4727   -7.1776   -2.9211 H         1 UNK         0.0650 
     43 H16        15.6814   -8.1740   -2.2967 H         1 UNK         0.1550 
     44 H17        17.3729   -6.7740   -1.1611 H         1 UNK         0.0120 
     45 H18        13.7416   -2.0408    3.2608 H         1 UNK         0.4600 
@<TRIPOS>BOND
     1    1    2 1    
     2    1   28 1    
     3    1   29 1    
     4    1   30 1    
     5    2    3 1    
     6    2   26 am   BACKBONE|DICT|INTERRES
     7    3    4 ar   
     8    3    5 ar   
     9    4   31 1    
    10    4   45 1    
    11    5    6 1    
    12    5   32 1    
    13    6    7 1    
    14    6   20 1    
    15    6   26 1    
    16    7    8 ar   
    17    7   19 ar   
    18    8    9 ar   
    19    8   33 1    
    20    9   10 ar   
    21    9   34 1    
    22   10   11 ar   
    23   10   35 1    
    24   11   12 1    
    25   11   19 ar   
    26   12   13 ar   
    27   12   18 ar   
    28   13   14 ar   
    29   13   36 1    
    30   14   15 ar   
    31   14   37 1    
    32   15   16 ar   
    33   15   38 1    
    34   16   17 1    
    35   16   18 ar   
    36   18   39 1    
    37   19   40 1    
    38   20   21 ar   
    39   20   25 ar   
    40   21   22 ar   
    41   21   41 1    
    42   22   23 ar   
    43   22   42 1    
    44   23   24 ar   
    45   23   43 1    
    46   24   25 ar   
    47   24   44 1    
    48   26   27 2    
@<TRIPOS>SUBSTRUCTURE
     1 UNK         1 GROUP             0       ****    0 ROOT    
@<TRIPOS>MOLECULE
CAT-13h
46   49    1
SMALL
USER_CHARGES


@<TRIPOS>ATOM
      1 C1         11.6820   -2.1707    1.3298 C.3       1 UNK        -0.0090 
      2 N1         12.9759   -2.4302    0.6898 N.am      1 UNK        -0.0184 
      3 C20        14.1857   -2.5033    1.2745 C.cat     1 UNK         0.5687 
      4 N2         14.4361   -2.3451    2.5798 N.pl3     1 UNK        -0.9138 
      5 N3         15.1499   -2.7842    0.3899 N.pl3     1 UNK        -0.5282 
      6 C2         14.6008   -2.9822   -0.9565 C.3       1 UNK         0.4480 
      7 C3         15.1276   -1.9196   -1.9457 C.ar      1 UNK        -0.1150 
      8 C4         15.4911   -2.2559   -3.2691 C.ar      1 UNK        -0.1150 
      9 C5         16.0026   -1.2814   -4.1316 C.ar      1 UNK        -0.1150 
     10 C6         16.0562    0.0656   -3.7342 C.ar      1 UNK        -0.1150 
     11 C7         15.6099    0.4645   -2.4549 C.ar      1 UNK         0.0000 
     12 C8         15.4769    1.9021   -2.1038 C.ar      1 UNK         0.0000 
     13 C9         15.1741    2.8578   -3.1038 C.ar      1 UNK        -0.1150 
     14 C10        14.9081    4.2029   -2.7794 C.ar      1 UNK        -0.1150 
     15 C11        14.9471    4.6239   -1.4406 C.ar      1 UNK        -0.1150 
     16 C12        15.2835    3.7048   -0.4343 C.ar      1 UNK         0.1800 
     17 CL1        15.3415    4.2337    1.2070 Cl        1 UNK        -0.1800 
     18 C13        15.5532    2.3613   -0.7659 C.ar      1 UNK        -0.1150 
     19 C14        15.2059   -0.5552   -1.5583 C.ar      1 UNK        -0.1150 
     20 C15        14.7974   -4.3874   -1.4430 C.3       1 UNK         0.0000 
     21 C16        14.1620   -4.7107   -2.7627 C.3       1 UNK        -0.1800 
     22 C17        14.7243   -5.5220   -0.4464 C.3       1 UNK        -0.1200 
     23 C18        16.0547   -5.1279   -1.0470 C.3       1 UNK        -0.1200 
     24 C19        13.1177   -2.6879   -0.7028 C.2       1 UNK         0.6225 
     25 O1         12.1860   -2.7189   -1.5139 O.2       1 UNK        -0.5000 
     26 H1         10.9228   -2.8632    0.9660 H         1 UNK         0.0600 
     27 H2         11.7457   -2.2845    2.4102 H         1 UNK         0.0600 
     28 H3         11.3564   -1.1585    1.0940 H         1 UNK         0.0600 
     29 H4         15.3986   -2.4098    2.9173 H         1 UNK         0.4600 
     30 H5         16.1452   -2.8443    0.6075 H         1 UNK         0.3451 
     31 H6         15.3929   -3.2344   -3.6965 H         1 UNK         0.1150 
     32 H7         16.3357   -1.5561   -5.1236 H         1 UNK         0.1150 
     33 H8         16.4431    0.7954   -4.4266 H         1 UNK         0.1150 
     34 H9         15.0943    2.5545   -4.1380 H         1 UNK         0.1150 
     35 H10        14.6445    4.9129   -3.5485 H         1 UNK         0.1150 
     36 H11        14.7172    5.6482   -1.1829 H         1 UNK         0.1150 
     37 H12        15.8238    1.6759    0.0186 H         1 UNK         0.1150 
     38 H13        14.8869   -0.2621   -0.5694 H         1 UNK         0.1150 
     39 H14        14.3658   -5.7504   -3.0191 H         1 UNK         0.0600 
     40 H15        13.0849   -4.5578   -2.6946 H         1 UNK         0.0600 
     41 H16        14.5735   -4.0590   -3.5335 H         1 UNK         0.0600 
     42 H17        14.5608   -5.2756    0.6013 H         1 UNK         0.0600 
     43 H18        14.2526   -6.4392   -0.7622 H         1 UNK         0.0600 
     44 H19        16.4991   -5.7788   -1.7766 H         1 UNK         0.0600 
     45 H20        16.7698   -4.6165   -0.4053 H         1 UNK         0.0600 
     46 H21        13.7416   -2.0408    3.2608 H         1 UNK         0.4600 
@<TRIPOS>BOND
     1    1    2 1    
     2    1   26 1    
     3    1   27 1    
     4    1   28 1    
     5    2    3 1    
     6    2   24 am   BACKBONE|DICT|INTERRES
     7    3    4 ar   
     8    3    5 ar   
     9    4   29 1    
    10    4   46 1    
    11    5    6 1    
    12    5   30 1    
    13    6    7 1    
    14    6   20 1    
    15    6   24 1    
    16    7    8 ar   
    17    7   19 ar   
    18    8    9 ar   
    19    8   31 1    
    20    9   10 ar   
    21    9   32 1    
    22   10   11 ar   
    23   10   33 1    
    24   11   12 1    
    25   11   19 ar   
    26   12   13 ar   
    27   12   18 ar   
    28   13   14 ar   
    29   13   34 1    
    30   14   15 ar   
    31   14   35 1    
    32   15   16 ar   
    33   15   36 1    
    34   16   17 1    
    35   16   18 ar   
    36   18   37 1    
    37   19   38 1    
    38   20   21 1    
    39   20   22 1    
    40   20   23 1    
    41   21   39 1    
    42   21   40 1    
    43   21   41 1    
    44   22   23 1    
    45   22   42 1    
    46   22   43 1    
    47   23   44 1    
    48   23   45 1    
    49   24   25 2    
@<TRIPOS>SUBSTRUCTURE
     1 UNK         1 GROUP             0       ****    0 ROOT    
@<TRIPOS>MOLECULE
CAT-4i
45   48    1
SMALL
USER_CHARGES


@<TRIPOS>ATOM
      1 C1         11.6820   -2.1707    1.3298 C.3       1 UNK        -0.0090 
      2 N1         12.9759   -2.4302    0.6898 N.am      1 UNK        -0.0184 
      3 C21        14.1857   -2.5033    1.2745 C.cat     1 UNK         0.5687 
      4 N2         14.4361   -2.3451    2.5798 N.pl3     1 UNK        -0.9138 
      5 N3         15.1499   -2.7842    0.3899 N.pl3     1 UNK        -0.5282 
      6 C2         14.6008   -2.9822   -0.9565 C.3       1 UNK         0.5630 
      7 C3         14.8601   -4.4483   -1.3759 C.ar      1 UNK        -0.1150 
      8 C4         13.9201   -5.2434   -2.0756 C.ar      1 UNK        -0.1150 
      9 C5         14.2010   -6.5878   -2.3927 C.ar      1 UNK        -0.1150 
     10 C6         15.4382   -7.1531   -2.0424 C.ar      1 UNK        -0.1150 
     11 C7         16.3957   -6.3717   -1.3851 C.ar      1 UNK        -0.1150 
     12 C8         16.0961   -5.0428   -1.0437 C.ar      1 UNK        -0.1150 
     13 C9         15.1276   -1.9196   -1.9457 C.ar      1 UNK        -0.1150 
     14 C10        15.4911   -2.2559   -3.2691 C.ar      1 UNK        -0.1150 
     15 C11        16.0026   -1.2814   -4.1316 C.ar      1 UNK        -0.1150 
     16 C12        16.0562    0.0656   -3.7342 C.ar      1 UNK        -0.1150 
     17 C13        15.6099    0.4645   -2.4549 C.ar      1 UNK        -0.0446 
     18 C14        15.4769    1.9021   -2.1038 C.ar      1 UNK         0.5296 
     19 C15        15.1741    2.8578   -3.1038 C.ar      1 UNK        -0.4470 
     20 C16        14.9081    4.2029   -2.7794 C.ar      1 UNK         0.2270 
     21 C17        14.9471    4.6239   -1.4406 C.ar      1 UNK        -0.4470 
     22 C18        15.2835    3.7048   -0.4343 C.ar      1 UNK         0.4730 
     23 N4         15.5532    2.3613   -0.7659 N.ar      1 UNK        -0.6780 
     24 C19        15.2059   -0.5552   -1.5583 C.ar      1 UNK        -0.1150 
     25 C20        13.1177   -2.6879   -0.7028 C.2       1 UNK         0.6225 
     26 O1         12.1860   -2.7189   -1.5139 O.2       1 UNK        -0.5000 
     27 H1         11.7457   -2.2845    2.4102 H         1 UNK         0.0600 
     28 H2         11.3564   -1.1585    1.0940 H         1 UNK         0.0600 
     29 H3         10.9228   -2.8632    0.9660 H         1 UNK         0.0600 
     30 H4         15.3986   -2.4098    2.9173 H         1 UNK         0.4600 
     31 H5         16.1360   -2.9036    0.6190 H         1 UNK         0.3451 
     32 H6         12.9573   -4.8677   -2.3842 H         1 UNK         0.1150 
     33 H7         13.4689   -7.1902   -2.9166 H         1 UNK         0.1150 
     34 H8         15.6393   -8.1862   -2.2700 H         1 UNK         0.1150 
     35 H9         17.3648   -6.7728   -1.1407 H         1 UNK         0.1150 
     36 H10        16.8447   -4.4460   -0.5502 H         1 UNK         0.1150 
     37 H11        15.4067   -3.2622   -3.6568 H         1 UNK         0.1150 
     38 H12        16.3284   -1.5713   -5.1166 H         1 UNK         0.1150 
     39 H13        16.4102    0.8084   -4.4373 H         1 UNK         0.1150 
     40 H14        15.1741    2.5779   -4.1412 H         1 UNK         0.1550 
     41 H15        14.6885    4.9252   -3.5509 H         1 UNK         0.0650 
     42 H16        14.7123    5.6453   -1.1737 H         1 UNK         0.1550 
     43 H17        15.3532    4.0351    0.5930 H         1 UNK         0.0120 
     44 H18        14.8708   -0.2727   -0.5737 H         1 UNK         0.1150 
     45 H19        13.7416   -2.0408    3.2608 H         1 UNK         0.4600 
@<TRIPOS>BOND
     1    1    2 1    
     2    1   27 1    
     3    1   28 1    
     4    1   29 1    
     5    2    3 1    
     6    2   25 am   BACKBONE|DICT|INTERRES
     7    3    4 ar   
     8    3    5 ar   
     9    4   30 1    
    10    4   45 1    
    11    5    6 1    
    12    5   31 1    
    13    6    7 1    
    14    6   13 1    
    15    6   25 1    
    16    7    8 ar   
    17    7   12 ar   
    18    8    9 ar   
    19    8   32 1    
    20    9   10 ar   
    21    9   33 1    
    22   10   11 ar   
    23   10   34 1    
    24   11   12 ar   
    25   11   35 1    
    26   12   36 1    
    27   13   14 ar   
    28   13   24 ar   
    29   14   15 ar   
    30   14   37 1    
    31   15   16 ar   
    32   15   38 1    
    33   16   17 ar   
    34   16   39 1    
    35   17   18 1    
    36   17   24 ar   
    37   18   19 ar   
    38   18   23 ar   
    39   19   20 ar   
    40   19   40 1    
    41   20   21 ar   
    42   20   41 1    
    43   21   22 ar   
    44   21   42 1    
    45   22   23 ar   
    46   22   43 1    
    47   24   44 1    
    48   25   26 2    
@<TRIPOS>SUBSTRUCTURE
     1 UNK         1 GROUP             0       ****    0 ROOT    
@<TRIPOS>MOLECULE
CAT-17e
46   49    1
SMALL
USER_CHARGES


@<TRIPOS>ATOM
      1 C1         14.7488    5.2063    1.3474 C.3       1 UNK         0.1100 
      2 O1         15.3737    4.0152    0.9033 O.3       1 UNK        -0.3000 
      3 C19        15.2835    3.7048   -0.4343 C.ar      1 UNK        -0.1920 
      4 C2         14.9471    4.6239   -1.4406 C.ar      1 UNK         0.4730 
      5 N1         14.9081    4.2029   -2.7794 N.ar      1 UNK        -0.6780 
      6 C3         15.1741    2.8578   -3.1038 C.ar      1 UNK         0.4730 
      7 C4         15.4769    1.9021   -2.1038 C.ar      1 UNK        -0.2920 
      8 C5         15.6099    0.4645   -2.4549 C.ar      1 UNK         0.0000 
      9 C6         16.0562    0.0656   -3.7342 C.ar      1 UNK        -0.1150 
     10 C7         16.0026   -1.2814   -4.1316 C.ar      1 UNK        -0.1150 
     11 C8         15.4911   -2.2559   -3.2691 C.ar      1 UNK        -0.1150 
     12 C9         15.1276   -1.9196   -1.9457 C.ar      1 UNK        -0.1150 
     13 C10        14.6008   -2.9822   -0.9565 C.3       1 UNK         0.4480 
     14 C11        14.7974   -4.3874   -1.4430 C.3       1 UNK        -0.0600 
     15 C12        16.0547   -5.1279   -1.0470 C.3       1 UNK        -0.1200 
     16 C13        14.7243   -5.5220   -0.4464 C.3       1 UNK        -0.1200 
     17 N2         15.1499   -2.7842    0.3899 N.pl3     1 UNK        -0.5282 
     18 C14        14.1857   -2.5033    1.2745 C.cat     1 UNK         0.5687 
     19 N3         14.4361   -2.3451    2.5798 N.pl3     1 UNK        -0.9138 
     20 N4         12.9759   -2.4302    0.6898 N.am      1 UNK        -0.0184 
     21 C15        11.6820   -2.1707    1.3298 C.3       1 UNK        -0.0090 
     22 C16        13.1177   -2.6879   -0.7028 C.2       1 UNK         0.6225 
     23 O2         12.1860   -2.7189   -1.5139 O.2       1 UNK        -0.5000 
     24 C17        15.2059   -0.5552   -1.5583 C.ar      1 UNK        -0.1150 
     25 C18        15.5532    2.3613   -0.7659 C.ar      1 UNK         0.2270 
     26 H1         14.7899    5.2574    2.4354 H         1 UNK         0.0300 
     27 H2         15.2354    6.0939    0.9560 H         1 UNK         0.0300 
     28 H3         13.7039    5.2264    1.0454 H         1 UNK         0.0300 
     29 H4         14.7302    5.6569   -1.2166 H         1 UNK         0.0120 
     30 H5         15.0894    2.6245   -4.1542 H         1 UNK         0.0120 
     31 H6         16.4285    0.7926   -4.4387 H         1 UNK         0.1150 
     32 H7         16.3422   -1.5435   -5.1223 H         1 UNK         0.1150 
     33 H8         15.3898   -3.2393   -3.6858 H         1 UNK         0.1150 
     34 H9         14.4864   -4.4803   -2.4830 H         1 UNK         0.0600 
     35 H10        16.5012   -5.8016   -1.7751 H         1 UNK         0.0600 
     36 H11        16.7632   -4.6030   -0.4246 H         1 UNK         0.0600 
     37 H12        14.5792   -5.3200    0.6046 H         1 UNK         0.0600 
     38 H13        14.2731   -6.4499   -0.7906 H         1 UNK         0.0600 
     39 H14        16.1487   -2.8489    0.5943 H         1 UNK         0.3451 
     40 H15        13.7416   -2.0408    3.2608 H         1 UNK         0.4600 
     41 H16        10.9228   -2.8632    0.9660 H         1 UNK         0.0600 
     42 H17        11.7457   -2.2845    2.4102 H         1 UNK         0.0600 
     43 H18        11.3564   -1.1585    1.0940 H         1 UNK         0.0600 
     44 H19        14.8940   -0.2642   -0.5677 H         1 UNK         0.1150 
     45 H20        15.8132    1.6798    0.0235 H         1 UNK         0.0650 
     46 H21        15.3986   -2.4098    2.9173 H         1 UNK         0.4600 
@<TRIPOS>BOND
     1    1    2 1    
     2    1   26 1    
     3    1   27 1    
     4    1   28 1    
     5    2    3 1    
     6    3    4 ar   
     7    3   25 ar   
     8    4    5 ar   
     9    4   29 1    
    10    5    6 ar   
    11    6    7 ar   
    12    6   30 1    
    13    7    8 1    
    14    7   25 ar   
    15    8    9 ar   
    16    8   24 ar   
    17    9   10 ar   
    18    9   31 1    
    19   10   11 ar   
    20   10   32 1    
    21   11   12 ar   
    22   11   33 1    
    23   12   13 1    
    24   12   24 ar   
    25   13   14 1    
    26   13   17 1    
    27   13   22 1    
    28   14   15 1    
    29   14   16 1    
    30   14   34 1    
    31   15   16 1    
    32   15   35 1    
    33   15   36 1    
    34   16   37 1    
    35   16   38 1    
    36   17   18 ar   
    37   17   39 1    
    38   18   19 ar   
    39   18   20 1    
    40   19   40 1    
    41   19   46 1    
    42   20   21 1    
    43   20   22 am   BACKBONE|DICT|INTERRES
    44   21   41 1    
    45   21   42 1    
    46   21   43 1    
    47   22   23 2    
    48   24   44 1    
    49   25   45 1    
@<TRIPOS>SUBSTRUCTURE
     1 UNK         1 GROUP             0       ****    0 ROOT    
