@<TRIPOS>MOLECULE
p38a_2n
53   56    2
SMALL
USER_CHARGES


@<TRIPOS>ATOM
      1 C24        38.2632   36.7144   17.0134 C.ar      1 3FN        -0.1150 
      2 C15        34.5448   34.9770   21.1828 C.ar      1 3FN         0.5567 
      3 C25        37.5969   36.1886   18.1373 C.ar      1 3FN         0.2200 
      4 C8         34.0445   38.9756   23.7378 C.ar      1 3FN         0.9663 
      5 C10        34.8025   37.8108   21.4407 C.ar      1 3FN        -0.4920 
      6 C17        35.2536   37.1252   20.2344 C.ar      1 3FN        -0.1150 
      7 C23        37.6232   36.7427   15.7594 C.ar      1 3FN         0.2200 
      8 C22        36.3272   36.2163   15.6228 C.ar      1 3FN        -0.1150 
      9 C21        35.6719   35.6684   16.7395 C.ar      1 3FN        -0.1150 
     10 C9         34.3067   37.0366   22.5109 C.ar      1 3FN         0.7490 
     11 C11        34.8522   39.2088   21.6169 C.ar      1 3FN         0.6530 
     12 C16        35.1646   35.7815   20.1251 C.ar      1 3FN         0.0283 
     13 C20        36.2931   35.6640   18.0028 C.ar      1 3FN         0.0850 
     14 F14        38.2058   36.1970   19.3473 F         1 3FN        -0.2200 
     15 O26        35.6498   35.0616   19.0536 O.3       1 3FN        -0.1700 
     16 N7         34.4789   39.7925   22.7772 N.ar      1 3FN        -0.8390 
     17 O19        34.3290   33.7761   21.0235 O.2       1 3FN        -0.5000 
     18 N14        34.2121   35.6181   22.3415 N.pl3     1 3FN        -0.1550 
     19 N12        33.9306   37.6499   23.6560 N.ar      1 3FN        -0.8390 
     20 N13        33.6717   39.5652   24.9268 N.pl3     1 3FN        -0.7043 
     21 H24        39.2591   37.1167   17.1187 H         1 3FN         0.1150 
     22 H17        35.7054   37.7328   19.4650 H         1 3FN         0.1150 
     23 H23        35.8420   36.2282   14.6576 H         1 3FN         0.1150 
     24 H24        34.6848   35.2436   16.6304 H         1 3FN         0.1150 
     25 H11        35.2203   39.8603   20.8379 H         1 3FN         0.0110 
     26 HN1        33.7698   40.5676   24.9297 H         1 3FN         0.3800 
     27 F27        38.2455   37.2821   14.6863 F         1 3FN         0.0000 
     28 C28        31.0952   38.3551   27.4684 C.3       1 3FN         0.0000 
     29 C29        31.6235   38.9529   26.1544 C.3       1 3FN         0.0000 
     30 C30        33.1562   38.9294   26.1332 C.3       1 3FN         0.0000 
     31 C31        33.6809   39.6144   27.4031 C.3       1 3FN         0.0000 
     32 C32        33.0541   38.9788   28.6539 C.3       1 3FN         0.0000 
     33 O33        31.6350   39.0631   28.5784 O.3       1 3FN         0.0000 
     34 H34        31.3463   37.2957   27.5416 H         1 3FN         0.0000 
     35 H35        30.0078   38.4257   27.5010 H         1 3FN         0.0000 
     36 H36        31.2579   39.9756   26.0539 H         1 3FN         0.0000 
     37 H37        31.2258   38.3917   25.3078 H         1 3FN         0.0000 
     38 H38        33.4880   37.8899   26.1488 H         1 3FN         0.0000 
     39 H39        34.7675   39.5359   27.4548 H         1 3FN         0.0000 
     40 H40        33.4414   40.6785   27.3878 H         1 3FN         0.0000 
     41 H41        33.3636   37.9376   28.7590 H         1 3FN         0.0000 
     42 H42        33.3909   39.5019   29.5492 H         1 3FN         0.0000 
     43 C43        33.6690   34.8315   23.4618 C.3       1 3FN         0.0000 
     44 H44        33.9150   33.7698   23.4167 H         1 3FN         0.0000 
     45 H45        34.0576   35.1909   24.4151 H         1 3FN         0.0000 
     46 C46        32.1750   34.9620   23.4939 C.3       1 3FN         0.0000 
     47 H47        31.9045   36.0099   23.6236 H         1 3FN         0.0000 
     48 H48        31.7578   34.5923   22.5572 H         1 3FN         0.0000 
     49 C49        31.6274   34.1591   24.6365 C.3       1 3FN         0.0000 
     50 H50        31.8979   33.1112   24.5068 H         1 3FN         0.0000 
     51 H51        32.0446   34.5288   25.5732 H         1 3FN         0.0000 
     52 O52        30.2529   34.2791   24.6660 O.3       1 3FN         0.0000 
     53 H53        29.8002   33.7735   25.4004 H         1 3FN         0.0000 
@<TRIPOS>BOND
     1    1    3 ar   
     2    1    7 ar   
     3    1   21 1    
     4    2   12 ar   
     5    2   17 2    
     6    2   18 ar   
     7    3   13 ar   
     8    3   14 1    
     9    4   16 ar   
    10    4   19 ar   
    11    4   20 1    
    12    5    6 ar   
    13    5   10 ar   
    14    5   11 ar   
    15    6   12 ar   
    16    6   22 1    
    17    7    8 ar   
    18    7   27 1    
    19    8    9 ar   
    20    8   23 1    
    21    9   13 ar   
    22    9   24 1    
    23   10   18 ar   
    24   10   19 ar   
    25   11   16 ar   
    26   11   25 1    
    27   12   15 1    
    28   13   15 1    
    29   18   43 1    
    30   20   26 1    
    31   20   30 1    
    32   28   29 1    
    33   28   33 1    
    34   28   34 1    
    35   28   35 1    
    36   29   30 1    
    37   29   36 1    
    38   29   37 1    
    39   30   31 1    
    40   30   38 1    
    41   31   32 1    
    42   31   39 1    
    43   31   40 1    
    44   32   33 1    
    45   32   41 1    
    46   32   42 1    
    47   43   44 1    
    48   43   45 1    
    49   43   46 1    
    50   46   47 1    
    51   46   48 1    
    52   46   49 1    
    53   49   50 1    
    54   49   51 1    
    55   49   52 1    
    56   52   53 1    
@<TRIPOS>SUBSTRUCTURE
     1 3FN         1 GROUP             0 C     ****    0 ROOT    
     1 3FN        27 GROUP             0       ****    0 ROOT    
@<TRIPOS>MOLECULE
p38a_3flz
46   49    1
SMALL
USER_CHARGES


@<TRIPOS>ATOM
      1 O11        35.6498   35.0616   19.0536 O.3       1 FLZ        -0.1700 
      2 C10        35.2536   37.1252   20.2344 C.ar      1 FLZ        -0.1150 
      3 C6         34.3067   37.0366   22.5109 C.ar      1 FLZ         0.7490 
      4 C5         34.8025   37.8108   21.4407 C.ar      1 FLZ        -0.4920 
      5 C4         34.8522   39.2088   21.6169 C.ar      1 FLZ         0.6530 
      6 C2         34.0445   38.9756   23.7378 C.ar      1 FLZ         0.9663 
      7 C9         35.1646   35.7815   20.1251 C.ar      1 FLZ         0.0283 
      8 C12        36.2931   35.6640   18.0028 C.ar      1 FLZ         0.0850 
      9 C14        33.6690   34.8315   23.4618 C.3       1 FLZ        -0.1100 
     10 C22        33.6809   39.6144   27.4031 C.3       1 FLZ        -0.1200 
     11 C15        37.5969   36.1886   18.1373 C.ar      1 FLZ        -0.1150 
     12 C17        37.6232   36.7427   15.7594 C.ar      1 FLZ        -0.1150 
     13 C16        38.2632   36.7144   17.0134 C.ar      1 FLZ        -0.1150 
     14 C18        36.3272   36.2163   15.6228 C.ar      1 FLZ        -0.1150 
     15 O13        34.3290   33.7761   21.0235 O.2       1 FLZ        -0.5000 
     16 C8         34.5448   34.9770   21.1828 C.ar      1 FLZ         0.5567 
     17 C19        35.6719   35.6684   16.7395 C.ar      1 FLZ        -0.1150 
     18 N1         34.4789   39.7925   22.7772 N.ar      1 FLZ        -0.8390 
     19 N7         34.2121   35.6181   22.3415 N.pl3     1 FLZ        -0.1550 
     20 N3         33.9306   37.6499   23.6560 N.ar      1 FLZ        -0.8390 
     21 N20        33.6717   39.5652   24.9268 N.pl3     1 FLZ        -0.7043 
     22 C21        33.1562   38.9294   26.1332 C.3       1 FLZ         0.1400 
     23 C26        31.6235   38.9529   26.1544 C.3       1 FLZ        -0.1200 
     24 C25        31.0952   38.3551   27.4684 C.3       1 FLZ         0.1400 
     25 O24        31.6350   39.0631   28.5784 O.3       1 FLZ        -0.4000 
     26 C23        33.0541   38.9788   28.6539 C.3       1 FLZ         0.1400 
     27 H10        35.7016   37.7300   19.4595 H         1 FLZ         0.1150 
     28 H4         35.2199   39.8602   20.8377 H         1 FLZ         0.0110 
     29 H141       34.0543   35.1876   24.4176 H         1 FLZ         0.0600 
     30 H142       32.5822   34.9190   23.4834 H         1 FLZ         0.0600 
     31 H143       33.9197   33.7705   23.4230 H         1 FLZ         0.0600 
     32 H221       34.7675   39.5363   27.4549 H         1 FLZ         0.0600 
     33 H222       33.4411   40.6784   27.3878 H         1 FLZ         0.0600 
     34 H15        38.0927   36.1586   19.0964 H         1 FLZ         0.1150 
     35 H17        38.1333   37.1545   14.9002 H         1 FLZ         0.1150 
     36 H16        39.2655   37.1043   17.1160 H         1 FLZ         0.1150 
     37 H18        35.8391   36.2206   14.6590 H         1 FLZ         0.1150 
     38 H19        34.6851   35.2426   16.6303 H         1 FLZ         0.1150 
     39 HN2        33.7659   40.5680   24.9281 H         1 FLZ         0.3800 
     40 H21        33.4880   37.8899   26.1485 H         1 FLZ         0.0600 
     41 H261       31.2579   39.9756   26.0540 H         1 FLZ         0.0600 
     42 H262       31.2260   38.3919   25.3075 H         1 FLZ         0.0600 
     43 H251       30.0077   38.4258   27.5011 H         1 FLZ         0.0300 
     44 H252       31.3462   37.2956   27.5415 H         1 FLZ         0.0300 
     45 H231       33.3637   37.9376   28.7592 H         1 FLZ         0.0300 
     46 H232       33.3907   39.5021   29.5492 H         1 FLZ         0.0300 
@<TRIPOS>BOND
     1    1    7 1    
     2    1    8 1    
     3    2    4 ar   
     4    2    7 ar   
     5    2   27 1    
     6    3    4 ar   
     7    3   19 ar   
     8    3   20 ar   
     9    4    5 ar   
    10    5   18 ar   
    11    5   28 1    
    12    6   18 ar   
    13    6   20 ar   
    14    6   21 1    
    15    7   16 ar   
    16    8   11 ar   
    17    8   17 ar   
    18    9   19 1    
    19    9   29 1    
    20    9   30 1    
    21    9   31 1    
    22   10   22 1    
    23   10   26 1    
    24   10   32 1    
    25   10   33 1    
    26   11   13 ar   
    27   11   34 1    
    28   12   13 ar   
    29   12   14 ar   
    30   12   35 1    
    31   13   36 1    
    32   14   17 ar   
    33   14   37 1    
    34   15   16 2    
    35   16   19 ar   
    36   17   38 1    
    37   21   22 1    
    38   21   39 1    
    39   22   23 1    
    40   22   40 1    
    41   23   24 1    
    42   23   41 1    
    43   23   42 1    
    44   24   25 1    
    45   24   43 1    
    46   24   44 1    
    47   25   26 1    
    48   26   45 1    
    49   26   46 1    
@<TRIPOS>SUBSTRUCTURE
     1 FLZ         1 GROUP             0 A     ****    0 ROOT    
@<TRIPOS>MOLECULE
p38a_2h
46   49    2
SMALL
USER_CHARGES


@<TRIPOS>ATOM
      1 C1         31.6235   38.9529   26.1544 C.3       1 3FN        -0.1200 
      2 C2         31.0952   38.3551   27.4684 C.3       1 3FN         0.1400 
      3 C4         33.0541   38.9788   28.6539 C.3       1 3FN         0.1400 
      4 C5         33.6809   39.6144   27.4031 C.3       1 3FN        -0.1200 
      5 C24        38.5466   36.6894   16.4814 C.ar      1 3FN        -0.1150 
      6 O3         31.6350   39.0631   28.5784 O.3       1 3FN        -0.4000 
      7 C15        34.5448   34.9770   21.1828 C.ar      1 3FN         0.5567 
      8 C25        37.8804   36.1637   17.6053 C.ar      1 3FN         0.2200 
      9 C8         34.0445   38.9756   23.7378 C.ar      1 3FN         0.9663 
     10 C6         33.1562   38.9294   26.1332 C.3       1 3FN         0.1400 
     11 C10        34.8025   37.8108   21.4407 C.ar      1 3FN        -0.4920 
     12 C17        35.2536   37.1252   20.2344 C.ar      1 3FN        -0.1150 
     13 C23        37.9066   36.7177   15.2274 C.ar      1 3FN         0.2200 
     14 C22        36.6106   36.1914   15.0908 C.ar      1 3FN        -0.1150 
     15 C21        35.9553   35.6435   16.2076 C.ar      1 3FN        -0.1150 
     16 C9         34.3067   37.0366   22.5109 C.ar      1 3FN         0.7490 
     17 C11        34.8522   39.2088   21.6169 C.ar      1 3FN         0.6530 
     18 C16        35.1646   35.7815   20.1251 C.ar      1 3FN         0.0283 
     19 C20        36.5766   35.6391   17.4708 C.ar      1 3FN         0.0850 
     20 C18        33.6690   34.8315   23.4618 C.3       1 3FN        -0.1100 
     21 F21        38.4795   36.1719   18.7960 F         1 3FN        -0.2200 
     22 S22        35.7698   34.8837   18.7887 S.3       1 3FN        -0.1700 
     23 N7         34.4789   39.7925   22.7772 N.ar      1 3FN        -0.8390 
     24 O19        34.3290   33.7761   21.0235 O.2       1 3FN        -0.5000 
     25 N14        34.2121   35.6181   22.3415 N.pl3     1 3FN        -0.1550 
     26 N12        33.9306   37.6499   23.6560 N.ar      1 3FN        -0.8390 
     27 N13        33.6717   39.5652   24.9268 N.pl3     1 3FN        -0.7043 
     28 H11        31.2200   38.3997   25.3053 H         1 3FN         0.0600 
     29 H12        31.2771   39.9808   26.0536 H         1 3FN         0.0600 
     30 H21        30.0102   38.4341   27.5066 H         1 3FN         0.0300 
     31 H22        31.3432   37.2955   27.5444 H         1 3FN         0.0300 
     32 H41        33.3652   37.9383   28.7608 H         1 3FN         0.0300 
     33 H42        33.3890   39.5054   29.5480 H         1 3FN         0.0300 
     34 H51        33.4274   40.6742   27.3922 H         1 3FN         0.0600 
     35 H52        34.7681   39.5450   27.4512 H         1 3FN         0.0600 
     36 H24        39.5419   37.0909   16.5846 H         1 3FN         0.1150 
     37 H6         33.4882   37.8909   26.1541 H         1 3FN         0.0600 
     38 H17        35.7026   37.7356   19.4667 H         1 3FN         0.1150 
     39 H39        36.1209   36.2000   14.1283 H         1 3FN         0.1150 
     40 H40        34.9751   35.2055   16.0909 H         1 3FN         0.1150 
     41 H11        35.2183   39.8565   20.8356 H         1 3FN         0.0110 
     42 H181       34.0543   35.1876   24.4176 H         1 3FN         0.0600 
     43 H182       32.5822   34.9190   23.4834 H         1 3FN         0.0600 
     44 H183       33.9197   33.7705   23.4230 H         1 3FN         0.0600 
     45 HN1        33.7904   40.5685   24.9712 H         1 3FN         0.3800 
     46 H46        38.4035   37.1485   14.3707 H         1 3FN         0.0000 
@<TRIPOS>BOND
     1    1    2 1    
     2    1   10 1    
     3    1   28 1    
     4    1   29 1    
     5    2    6 1    
     6    2   30 1    
     7    2   31 1    
     8    3    4 1    
     9    3    6 1    
    10    3   32 1    
    11    3   33 1    
    12    4   10 1    
    13    4   34 1    
    14    4   35 1    
    15    5    8 ar   
    16    5   13 ar   
    17    5   36 1    
    18    7   18 ar   
    19    7   24 2    
    20    7   25 ar   
    21    8   19 ar   
    22    8   21 1    
    23    9   23 ar   
    24    9   26 ar   
    25    9   27 1    
    26   10   27 1    
    27   10   37 1    
    28   11   12 ar   
    29   11   16 ar   
    30   11   17 ar   
    31   12   18 ar   
    32   12   38 1    
    33   13   14 ar   
    34   13   46 1    
    35   14   15 ar   
    36   14   39 1    
    37   15   19 ar   
    38   15   40 1    
    39   16   25 ar   
    40   16   26 ar   
    41   17   23 ar   
    42   17   41 1    
    43   18   22 1    
    44   19   22 1    
    45   20   25 1    
    46   20   42 1    
    47   20   43 1    
    48   20   44 1    
    49   27   45 1    
@<TRIPOS>SUBSTRUCTURE
     1 3FN         1 GROUP             0 C     ****    0 ROOT    
     1 3FN        46 GROUP             0       ****    0 ROOT    
@<TRIPOS>MOLECULE
p38a_2s
54   57    2
SMALL
USER_CHARGES


@<TRIPOS>ATOM
      1 C24        38.2632   36.7144   17.0134 C.ar      1 3FN        -0.1150 
      2 C15        34.5448   34.9770   21.1828 C.ar      1 3FN         0.5567 
      3 C25        37.5969   36.1886   18.1373 C.ar      1 3FN         0.2200 
      4 C8         34.0445   38.9756   23.7378 C.ar      1 3FN         0.9663 
      5 C10        34.8025   37.8108   21.4407 C.ar      1 3FN        -0.4920 
      6 C17        35.2536   37.1252   20.2344 C.ar      1 3FN        -0.1150 
      7 C23        37.6232   36.7427   15.7594 C.ar      1 3FN         0.2200 
      8 C22        36.3272   36.2163   15.6228 C.ar      1 3FN        -0.1150 
      9 C21        35.6719   35.6684   16.7395 C.ar      1 3FN        -0.1150 
     10 C9         34.3067   37.0366   22.5109 C.ar      1 3FN         0.7490 
     11 C11        34.8522   39.2088   21.6169 C.ar      1 3FN         0.6530 
     12 C16        35.1646   35.7815   20.1251 C.ar      1 3FN         0.0283 
     13 C20        36.2931   35.6640   18.0028 C.ar      1 3FN         0.0850 
     14 F14        38.2058   36.1970   19.3473 F         1 3FN        -0.2200 
     15 O26        35.6498   35.0616   19.0536 O.3       1 3FN        -0.1700 
     16 N7         34.4789   39.7925   22.7772 N.ar      1 3FN        -0.8390 
     17 O19        34.3290   33.7761   21.0235 O.2       1 3FN        -0.5000 
     18 N14        34.2121   35.6181   22.3415 N.pl3     1 3FN        -0.1550 
     19 N12        33.9306   37.6499   23.6560 N.ar      1 3FN        -0.8390 
     20 N13        33.6717   39.5652   24.9268 N.pl3     1 3FN        -0.7043 
     21 H24        39.2591   37.1167   17.1187 H         1 3FN         0.1150 
     22 H17        35.7054   37.7328   19.4650 H         1 3FN         0.1150 
     23 H23        35.8420   36.2282   14.6576 H         1 3FN         0.1150 
     24 H24        34.6848   35.2436   16.6304 H         1 3FN         0.1150 
     25 H11        35.2203   39.8603   20.8379 H         1 3FN         0.0110 
     26 HN1        33.7698   40.5676   24.9297 H         1 3FN         0.3800 
     27 F27        38.2455   37.2821   14.6863 F         1 3FN         0.0000 
     28 C28        31.0952   38.3551   27.4684 C.3       1 3FN         0.0000 
     29 C29        31.6235   38.9529   26.1544 C.3       1 3FN         0.0000 
     30 C30        33.1562   38.9294   26.1332 C.3       1 3FN         0.0000 
     31 C31        33.6809   39.6144   27.4031 C.3       1 3FN         0.0000 
     32 C32        33.0541   38.9788   28.6539 C.3       1 3FN         0.0000 
     33 O33        31.6350   39.0631   28.5784 O.3       1 3FN         0.0000 
     34 H34        31.3463   37.2957   27.5416 H         1 3FN         0.0000 
     35 H35        30.0078   38.4257   27.5010 H         1 3FN         0.0000 
     36 H36        31.2579   39.9756   26.0539 H         1 3FN         0.0000 
     37 H37        31.2258   38.3917   25.3078 H         1 3FN         0.0000 
     38 H38        33.4880   37.8899   26.1488 H         1 3FN         0.0000 
     39 H39        34.7675   39.5359   27.4548 H         1 3FN         0.0000 
     40 H40        33.4414   40.6785   27.3878 H         1 3FN         0.0000 
     41 H41        33.3636   37.9376   28.7590 H         1 3FN         0.0000 
     42 H42        33.3909   39.5019   29.5492 H         1 3FN         0.0000 
     43 C43        33.6690   34.8315   23.4618 C.3       1 3FN         0.0000 
     44 H44        33.9150   33.7698   23.4167 H         1 3FN         0.0000 
     45 H45        34.0576   35.1909   24.4151 H         1 3FN         0.0000 
     46 C46        32.1750   34.9620   23.4939 C.3       1 3FN         0.0000 
     47 O47        31.8325   36.2887   23.6581 O.3       1 3FN         0.0000 
     48 H48        32.1751   36.7130   24.4963 H         1 3FN         0.0000 
     49 C49        31.6274   34.1591   24.6365 C.3       1 3FN         0.0000 
     50 H50        30.5418   34.2539   24.6598 H         1 3FN         0.0000 
     51 H51        32.0446   34.5288   25.5732 H         1 3FN         0.0000 
     52 H52        31.7578   34.5923   22.5572 H         1 3FN         0.0000 
     53 O53        31.9699   32.8324   24.4723 O.3       1 3FN         0.0000 
     54 H54        31.6443   32.2197   25.1924 H         1 3FN         0.0000 
@<TRIPOS>BOND
     1    1    3 ar   
     2    1    7 ar   
     3    1   21 1    
     4    2   12 ar   
     5    2   17 2    
     6    2   18 ar   
     7    3   13 ar   
     8    3   14 1    
     9    4   16 ar   
    10    4   19 ar   
    11    4   20 1    
    12    5    6 ar   
    13    5   10 ar   
    14    5   11 ar   
    15    6   12 ar   
    16    6   22 1    
    17    7    8 ar   
    18    7   27 1    
    19    8    9 ar   
    20    8   23 1    
    21    9   13 ar   
    22    9   24 1    
    23   10   18 ar   
    24   10   19 ar   
    25   11   16 ar   
    26   11   25 1    
    27   12   15 1    
    28   13   15 1    
    29   18   43 1    
    30   20   26 1    
    31   20   30 1    
    32   28   29 1    
    33   28   33 1    
    34   28   34 1    
    35   28   35 1    
    36   29   30 1    
    37   29   36 1    
    38   29   37 1    
    39   30   31 1    
    40   30   38 1    
    41   31   32 1    
    42   31   39 1    
    43   31   40 1    
    44   32   33 1    
    45   32   41 1    
    46   32   42 1    
    47   43   44 1    
    48   43   45 1    
    49   43   46 1    
    50   46   47 1    
    51   46   49 1    
    52   46   52 1    
    53   47   48 1    
    54   49   50 1    
    55   49   51 1    
    56   49   53 1    
    57   53   54 1    
@<TRIPOS>SUBSTRUCTURE
     1 3FN         1 GROUP             0 C     ****    0 ROOT    
     1 3FN        27 GROUP             0       ****    0 ROOT    
@<TRIPOS>MOLECULE
p38a_2bb
44   46    2
SMALL
USER_CHARGES


@<TRIPOS>ATOM
      1 C24        38.2632   36.7144   17.0134 C.ar      1 3FN        -0.1150 
      2 C15        34.5448   34.9770   21.1828 C.ar      1 3FN         0.5567 
      3 C25        37.5969   36.1886   18.1373 C.ar      1 3FN         0.2200 
      4 C8         34.0445   38.9756   23.7378 C.ar      1 3FN         0.9663 
      5 C6         32.9303   38.7565   25.8902 C.3       1 3FN         0.1400 
      6 C10        34.8025   37.8108   21.4407 C.ar      1 3FN        -0.4920 
      7 C17        35.2536   37.1252   20.2344 C.ar      1 3FN        -0.1150 
      8 C23        37.6232   36.7427   15.7594 C.ar      1 3FN         0.2200 
      9 C22        36.3272   36.2163   15.6228 C.ar      1 3FN        -0.1150 
     10 C21        35.6719   35.6684   16.7395 C.ar      1 3FN        -0.1150 
     11 C9         34.3067   37.0366   22.5109 C.ar      1 3FN         0.7490 
     12 C11        34.8522   39.2088   21.6169 C.ar      1 3FN         0.6530 
     13 C16        35.1646   35.7815   20.1251 C.ar      1 3FN         0.0283 
     14 C20        36.2931   35.6640   18.0028 C.ar      1 3FN         0.0850 
     15 C18        33.6690   34.8315   23.4618 C.3       1 3FN        -0.1100 
     16 F16        38.2058   36.1970   19.3473 F         1 3FN        -0.2200 
     17 O26        35.6498   35.0616   19.0536 O.3       1 3FN        -0.1700 
     18 N7         34.4789   39.7925   22.7772 N.ar      1 3FN        -0.8390 
     19 O19        34.3290   33.7761   21.0235 O.2       1 3FN        -0.5000 
     20 N14        34.2121   35.6181   22.3415 N.pl3     1 3FN        -0.1550 
     21 N12        33.9306   37.6499   23.6560 N.ar      1 3FN        -0.8390 
     22 N13        33.6717   39.5652   24.9268 N.pl3     1 3FN        -0.7043 
     23 H24        39.2592   37.1166   17.1185 H         1 3FN         0.1150 
     24 H6         33.2204   37.7110   25.7863 H         1 3FN         0.0600 
     25 H17        35.7056   37.7327   19.4650 H         1 3FN         0.1150 
     26 H26        35.8422   36.2281   14.6575 H         1 3FN         0.1150 
     27 H27        34.6847   35.2437   16.6306 H         1 3FN         0.1150 
     28 H11        35.2199   39.8604   20.8378 H         1 3FN         0.0110 
     29 H181       34.0543   35.1876   24.4176 H         1 3FN         0.0600 
     30 H182       32.5822   34.9190   23.4834 H         1 3FN         0.0600 
     31 H183       33.9197   33.7705   23.4230 H         1 3FN         0.0600 
     32 HN1        33.5695   40.5662   24.9409 H         1 3FN         0.3800 
     33 F33        38.2455   37.2821   14.6863 F         1 3FN         0.0000 
     34 C34        33.2406   39.2258   27.2807 C.3       1 3FN         0.0000 
     35 H62        31.8613   38.8573   25.7027 H         1 3FN         0.0000 
     36 H36        33.6810   38.4075   27.8505 H         1 3FN         0.0000 
     37 H37        33.9444   40.0569   27.2351 H         1 3FN         0.0000 
     38 C38        30.7273   38.2981   28.0595 C.3       1 3FN         0.0000 
     39 S39        31.7403   39.7616   28.0747 S.o2      1 3FN         1.2618 
     40 O40        32.0619   40.0646   29.4735 O.2       1 3FN        -0.7248 
     41 O41        31.1036   40.7516   27.1991 O.2       1 3FN        -0.7244 
     42 H42        29.7680   38.5153   28.5293 H         1 3FN         0.0000 
     43 H43        30.5638   37.9800   27.0298 H         1 3FN         0.0000 
     44 H44        31.2297   37.5027   28.6101 H         1 3FN         0.0000 
@<TRIPOS>BOND
     1    1    3 ar   
     2    1    8 ar   
     3    1   23 1    
     4    2   13 ar   
     5    2   19 2    
     6    2   20 ar   
     7    3   14 ar   
     8    3   16 1    
     9    4   18 ar   
    10    4   21 ar   
    11    4   22 1    
    12    5   22 1    
    13    5   24 1    
    14    5   34 1    
    15    5   35 1    
    16    6    7 ar   
    17    6   11 ar   
    18    6   12 ar   
    19    7   13 ar   
    20    7   25 1    
    21    8    9 ar   
    22    8   33 1    
    23    9   10 ar   
    24    9   26 1    
    25   10   14 ar   
    26   10   27 1    
    27   11   20 ar   
    28   11   21 ar   
    29   12   18 ar   
    30   12   28 1    
    31   13   17 1    
    32   14   17 1    
    33   15   20 1    
    34   15   29 1    
    35   15   30 1    
    36   15   31 1    
    37   22   32 1    
    38   34   36 1    
    39   34   37 1    
    40   34   39 1    
    41   38   39 1    
    42   38   42 1    
    43   38   43 1    
    44   38   44 1    
    45   39   40 2    
    46   39   41 2    
@<TRIPOS>SUBSTRUCTURE
     1 3FN         1 GROUP             0 C     ****    0 ROOT    
     1 3FN        33 GROUP             0       ****    0 ROOT    
@<TRIPOS>MOLECULE
p38a_2q
59   63    2
SMALL
USER_CHARGES


@<TRIPOS>ATOM
      1 C24        38.2632   36.7144   17.0134 C.ar      1 3FN        -0.1150 
      2 C15        34.5448   34.9770   21.1828 C.ar      1 3FN         0.5567 
      3 C25        37.5969   36.1886   18.1373 C.ar      1 3FN         0.2200 
      4 C8         34.0445   38.9756   23.7378 C.ar      1 3FN         0.9663 
      5 C10        34.8025   37.8108   21.4407 C.ar      1 3FN        -0.4920 
      6 C17        35.2536   37.1252   20.2344 C.ar      1 3FN        -0.1150 
      7 C23        37.6232   36.7427   15.7594 C.ar      1 3FN         0.2200 
      8 C22        36.3272   36.2163   15.6228 C.ar      1 3FN        -0.1150 
      9 C21        35.6719   35.6684   16.7395 C.ar      1 3FN        -0.1150 
     10 C9         34.3067   37.0366   22.5109 C.ar      1 3FN         0.7490 
     11 C11        34.8522   39.2088   21.6169 C.ar      1 3FN         0.6530 
     12 C16        35.1646   35.7815   20.1251 C.ar      1 3FN         0.0283 
     13 C20        36.2931   35.6640   18.0028 C.ar      1 3FN         0.0850 
     14 F14        38.2058   36.1970   19.3473 F         1 3FN        -0.2200 
     15 O26        35.6498   35.0616   19.0536 O.3       1 3FN        -0.1700 
     16 N7         34.4789   39.7925   22.7772 N.ar      1 3FN        -0.8390 
     17 O19        34.3290   33.7761   21.0235 O.2       1 3FN        -0.5000 
     18 N14        34.2121   35.6181   22.3415 N.pl3     1 3FN        -0.1550 
     19 N12        33.9306   37.6499   23.6560 N.ar      1 3FN        -0.8390 
     20 N13        33.6717   39.5652   24.9268 N.pl3     1 3FN        -0.7043 
     21 H24        39.2590   37.1169   17.1189 H         1 3FN         0.1150 
     22 H17        35.7052   37.7326   19.4650 H         1 3FN         0.1150 
     23 H23        35.8420   36.2284   14.6576 H         1 3FN         0.1150 
     24 H24        34.6846   35.2440   16.6308 H         1 3FN         0.1150 
     25 H11        35.2195   39.8602   20.8376 H         1 3FN         0.0110 
     26 HN1        33.7702   40.5677   24.9292 H         1 3FN         0.3800 
     27 F27        38.2455   37.2821   14.6863 F         1 3FN         0.0000 
     28 C28        31.0952   38.3551   27.4684 C.3       1 3FN         0.0000 
     29 C29        31.6235   38.9529   26.1544 C.3       1 3FN         0.0000 
     30 C30        33.1562   38.9294   26.1332 C.3       1 3FN         0.0000 
     31 C31        33.6809   39.6144   27.4031 C.3       1 3FN         0.0000 
     32 C32        33.0541   38.9788   28.6539 C.3       1 3FN         0.0000 
     33 O33        31.6350   39.0631   28.5784 O.3       1 3FN         0.0000 
     34 H34        31.3462   37.2957   27.5420 H         1 3FN         0.0000 
     35 H35        30.0078   38.4258   27.5011 H         1 3FN         0.0000 
     36 H36        31.2581   39.9758   26.0545 H         1 3FN         0.0000 
     37 H37        31.2252   38.3926   25.3075 H         1 3FN         0.0000 
     38 H38        33.4881   37.8900   26.1492 H         1 3FN         0.0000 
     39 H39        34.7676   39.5365   27.4548 H         1 3FN         0.0000 
     40 H40        33.4411   40.6784   27.3878 H         1 3FN         0.0000 
     41 H41        33.3635   37.9376   28.7593 H         1 3FN         0.0000 
     42 H42        33.3907   39.5020   29.5492 H         1 3FN         0.0000 
     43 C43        31.3999   33.8942   24.2953 C.3       1 3FN         0.0000 
     44 C44        32.1024   34.7777   23.2400 C.3       1 3FN         0.0000 
     45 C45        33.6324   34.8358   23.4295 C.3       1 3FN         0.0000 
     46 C46        34.0747   35.4496   24.7740 C.3       1 3FN         0.0000 
     47 C47        33.5845   34.6385   25.9945 C.3       1 3FN         0.0000 
     48 H48        31.7647   32.8700   24.2799 H         1 3FN         0.0000 
     49 H49        30.3199   33.8715   24.1719 H         1 3FN         0.0000 
     50 H50        31.6903   35.7896   23.2656 H         1 3FN         0.0000 
     51 H51        31.8785   34.3963   22.2412 H         1 3FN         0.0000 
     52 H52        34.0556   33.8346   23.3240 H         1 3FN         0.0000 
     53 H53        35.1648   35.5159   24.7973 H         1 3FN         0.0000 
     54 H54        33.7178   36.4803   24.8425 H         1 3FN         0.0000 
     55 H55        33.9448   33.6128   25.9755 H         1 3FN         0.0000 
     56 H56        33.8801   35.0844   26.9410 H         1 3FN         0.0000 
     57 S57        31.7184   34.5402   26.0198 S.o2      1 3FN         1.2618 
     58 O58        31.1615   35.8938   26.1429 O.2       1 3FN        -0.7248 
     59 O59        31.2977   33.5330   27.0018 O.2       1 3FN        -0.7244 
@<TRIPOS>BOND
     1    1    3 ar   
     2    1    7 ar   
     3    1   21 1    
     4    2   12 ar   
     5    2   17 2    
     6    2   18 ar   
     7    3   13 ar   
     8    3   14 1    
     9    4   16 ar   
    10    4   19 ar   
    11    4   20 1    
    12    5    6 ar   
    13    5   10 ar   
    14    5   11 ar   
    15    6   12 ar   
    16    6   22 1    
    17    7    8 ar   
    18    7   27 1    
    19    8    9 ar   
    20    8   23 1    
    21    9   13 ar   
    22    9   24 1    
    23   10   18 ar   
    24   10   19 ar   
    25   11   16 ar   
    26   11   25 1    
    27   12   15 1    
    28   13   15 1    
    29   18   45 1    
    30   20   26 1    
    31   20   30 1    
    32   28   29 1    
    33   28   33 1    
    34   28   34 1    
    35   28   35 1    
    36   29   30 1    
    37   29   36 1    
    38   29   37 1    
    39   30   31 1    
    40   30   38 1    
    41   31   32 1    
    42   31   39 1    
    43   31   40 1    
    44   32   33 1    
    45   32   41 1    
    46   32   42 1    
    47   43   44 1    
    48   43   48 1    
    49   43   49 1    
    50   43   57 1    
    51   44   45 1    
    52   44   50 1    
    53   44   51 1    
    54   45   46 1    
    55   45   52 1    
    56   46   47 1    
    57   46   53 1    
    58   46   54 1    
    59   47   55 1    
    60   47   56 1    
    61   47   57 1    
    62   57   58 2    
    63   57   59 2    
@<TRIPOS>SUBSTRUCTURE
     1 3FN         1 GROUP             0 C     ****    0 ROOT    
     1 3FN        27 GROUP             0       ****    0 ROOT    
@<TRIPOS>MOLECULE
p38a_2z
45   47    2
SMALL
USER_CHARGES


@<TRIPOS>ATOM
      1 C24        38.2632   36.7144   17.0134 C.ar      1 3FN        -0.1150 
      2 C15        34.5448   34.9770   21.1828 C.ar      1 3FN         0.5567 
      3 C25        37.5969   36.1886   18.1373 C.ar      1 3FN         0.2200 
      4 C8         34.0445   38.9756   23.7378 C.ar      1 3FN         0.9663 
      5 C6         33.1562   38.9294   26.1332 C.3       1 3FN         0.1400 
      6 C10        34.8025   37.8108   21.4407 C.ar      1 3FN        -0.4920 
      7 C17        35.2536   37.1252   20.2344 C.ar      1 3FN        -0.1150 
      8 C23        37.6232   36.7427   15.7594 C.ar      1 3FN         0.2200 
      9 C22        36.3272   36.2163   15.6228 C.ar      1 3FN        -0.1150 
     10 C21        35.6719   35.6684   16.7395 C.ar      1 3FN        -0.1150 
     11 C9         34.3067   37.0366   22.5109 C.ar      1 3FN         0.7490 
     12 C11        34.8522   39.2088   21.6169 C.ar      1 3FN         0.6530 
     13 C16        35.1646   35.7815   20.1251 C.ar      1 3FN         0.0283 
     14 C20        36.2931   35.6640   18.0028 C.ar      1 3FN         0.0850 
     15 C18        33.6690   34.8315   23.4618 C.3       1 3FN        -0.1100 
     16 F16        38.2058   36.1970   19.3473 F         1 3FN        -0.2200 
     17 O26        35.6498   35.0616   19.0536 O.3       1 3FN        -0.1700 
     18 N7         34.4789   39.7925   22.7772 N.ar      1 3FN        -0.8390 
     19 O19        34.3290   33.7761   21.0235 O.2       1 3FN        -0.5000 
     20 N14        34.2121   35.6181   22.3415 N.pl3     1 3FN        -0.1550 
     21 N12        33.9306   37.6499   23.6560 N.ar      1 3FN        -0.8390 
     22 N13        33.6717   39.5652   24.9268 N.pl3     1 3FN        -0.7043 
     23 H24        39.2585   37.1158   17.1165 H         1 3FN         0.1150 
     24 C24        33.6129   37.5010   26.1619 C.3       1 3FN         0.0600 
     25 H17        35.7026   37.7356   19.4667 H         1 3FN         0.1150 
     26 H26        35.8375   36.2249   14.6602 H         1 3FN         0.1150 
     27 H27        34.6916   35.2304   16.6228 H         1 3FN         0.1150 
     28 H11        35.2183   39.8565   20.8356 H         1 3FN         0.0110 
     29 H181       34.0543   35.1876   24.4176 H         1 3FN         0.0600 
     30 H182       32.5822   34.9190   23.4834 H         1 3FN         0.0600 
     31 H183       33.9197   33.7705   23.4230 H         1 3FN         0.0600 
     32 HN1        33.7904   40.5685   24.9712 H         1 3FN         0.3800 
     33 F33        38.2455   37.2821   14.6863 F         1 3FN         0.0000 
     34 C34        33.6752   39.6520   27.3409 C.3       1 3FN         0.0000 
     35 C35        31.6571   38.9824   26.1256 C.3       1 3FN         0.0000 
     36 O36        35.0843   39.6023   27.3496 O.3       1 3FN         0.0000 
     37 H37        35.4164   40.0648   28.1225 H         1 3FN         0.0000 
     38 H38        33.3490   40.6916   27.3110 H         1 3FN         0.0000 
     39 H39        33.2898   39.1766   28.2429 H         1 3FN         0.0000 
     40 H40        31.2717   38.5070   27.0276 H         1 3FN         0.0000 
     41 H41        31.3299   40.0216   26.0951 H         1 3FN         0.0000 
     42 H42        31.2789   38.4570   25.2487 H         1 3FN         0.0000 
     43 H43        33.2328   37.0154   27.0607 H         1 3FN         0.0000 
     44 H44        33.2359   36.9806   25.2814 H         1 3FN         0.0000 
     45 H45        34.7024   37.4673   26.1645 H         1 3FN         0.0000 
@<TRIPOS>BOND
     1    1    3 ar   
     2    1    8 ar   
     3    1   23 1    
     4    2   13 ar   
     5    2   19 2    
     6    2   20 ar   
     7    3   14 ar   
     8    3   16 1    
     9    4   18 ar   
    10    4   21 ar   
    11    4   22 1    
    12    5   22 1    
    13    5   24 1    
    14    5   34 1    
    15    5   35 1    
    16    6    7 ar   
    17    6   11 ar   
    18    6   12 ar   
    19    7   13 ar   
    20    7   25 1    
    21    8    9 ar   
    22    8   33 1    
    23    9   10 ar   
    24    9   26 1    
    25   10   14 ar   
    26   10   27 1    
    27   11   20 ar   
    28   11   21 ar   
    29   12   18 ar   
    30   12   28 1    
    31   13   17 1    
    32   14   17 1    
    33   15   20 1    
    34   15   29 1    
    35   15   30 1    
    36   15   31 1    
    37   22   32 1    
    38   24   43 1    
    39   24   44 1    
    40   24   45 1    
    41   34   36 1    
    42   34   38 1    
    43   34   39 1    
    44   35   40 1    
    45   35   41 1    
    46   35   42 1    
    47   36   37 1    
@<TRIPOS>SUBSTRUCTURE
     1 3FN         1 GROUP             0 C     ****    0 ROOT    
     1 3FN        33 GROUP             0       ****    0 ROOT    
@<TRIPOS>MOLECULE
p38a_3fmh
46   49    1
SMALL
USER_CHARGES


@<TRIPOS>ATOM
      1 F23        38.2455   37.2821   14.6863 F         1 533        -0.2200 
      2 C19        37.6232   36.7427   15.7594 C.ar      1 533         0.2200 
      3 C18        36.3272   36.2163   15.6228 C.ar      1 533        -0.1150 
      4 C17        35.6719   35.6684   16.7395 C.ar      1 533        -0.1150 
      5 C20        38.2632   36.7144   17.0134 C.ar      1 533        -0.1150 
      6 C21        37.5969   36.1886   18.1373 C.ar      1 533         0.2200 
      7 F22        38.2174   36.1772   19.3413 F         1 533        -0.2200 
      8 C16        36.2931   35.6640   18.0028 C.ar      1 533         0.0850 
      9 O15        35.6498   35.0616   19.0536 O.3       1 533        -0.1700 
     10 C12        35.1646   35.7815   20.1251 C.ar      1 533         0.0283 
     11 C11        34.5448   34.9770   21.1828 C.ar      1 533         0.5567 
     12 O14        34.3290   33.7761   21.0235 O.2       1 533        -0.5000 
     13 N10        34.2121   35.6181   22.3415 N.pl3     1 533        -0.1550 
     14 C24        33.6690   34.8315   23.4618 C.3       1 533        -0.1100 
     15 C9         34.3067   37.0366   22.5109 C.ar      1 533         0.7490 
     16 N5         33.9306   37.6499   23.6560 N.ar      1 533        -0.8390 
     17 C13        35.2536   37.1252   20.2344 C.ar      1 533        -0.1150 
     18 C8         34.8025   37.8108   21.4407 C.ar      1 533        -0.4920 
     19 C6         34.8522   39.2088   21.6169 C.ar      1 533         0.6530 
     20 N7         34.4789   39.7925   22.7772 N.ar      1 533        -0.8390 
     21 C4         34.0445   38.9756   23.7378 C.ar      1 533         0.9663 
     22 N1         33.6717   39.5652   24.9268 N.pl3     1 533        -0.7043 
     23 C2         32.9299   38.7564   25.8897 C.3       1 533         0.1400 
     24 C26        31.4588   38.8956   25.6315 C.3       1 533        -0.1800 
     25 C3         33.2399   39.2252   27.2805 C.3       1 533         0.0025 
     26 N25        32.4982   38.4164   28.2434 N.pl3     1 533         0.4691 
     27 N30        31.2625   38.7182   28.6882 N.2       1 533        -0.5708 
     28 C29        31.0254   37.7220   29.5145 C.ar      1 533         0.5442 
     29 N28        32.0032   36.8401   29.6144 N.2       1 533        -0.3710 
     30 N27        32.9948   37.2927   28.7691 N.2       1 533        -0.2368 
     31 H18        35.8422   36.2281   14.6575 H         1 533         0.1150 
     32 H17        34.6846   35.2437   16.6306 H         1 533         0.1150 
     33 H20        39.2608   37.1128   17.1177 H         1 533         0.1150 
     34 H241       32.5822   34.9190   23.4834 H         1 533         0.0600 
     35 H242       33.9197   33.7705   23.4230 H         1 533         0.0600 
     36 H243       34.0543   35.1876   24.4176 H         1 533         0.0600 
     37 H13        35.7056   37.7327   19.4650 H         1 533         0.1150 
     38 H6         35.2198   39.8602   20.8377 H         1 533         0.0110 
     39 HN1        33.5691   40.5662   24.9409 H         1 533         0.3800 
     40 H2         33.2197   37.7108   25.7857 H         1 533         0.0600 
     41 H261       30.9050   38.2917   26.3504 H         1 533         0.0600 
     42 H262       31.1690   39.9412   25.7356 H         1 533         0.0600 
     43 H263       31.2335   38.5550   24.6209 H         1 533         0.0600 
     44 H31        34.3089   39.1240   27.4681 H         1 533         0.0600 
     45 H32        32.9501   40.2708   27.3846 H         1 533         0.0600 
     46 H29        30.0993   37.6276   30.0733 H         1 533         0.0428 
@<TRIPOS>BOND
     1    1    2 1    
     2    2    3 ar   
     3    2    5 ar   
     4    3    4 ar   
     5    3   31 1    
     6    4    8 ar   
     7    4   32 1    
     8    5    6 ar   
     9    5   33 1    
    10    6    7 1    
    11    6    8 ar   
    12    8    9 1    
    13    9   10 1    
    14   10   11 ar   
    15   10   17 ar   
    16   11   12 2    
    17   11   13 ar   
    18   13   14 1    
    19   13   15 ar   
    20   14   34 1    
    21   14   35 1    
    22   14   36 1    
    23   15   16 ar   
    24   15   18 ar   
    25   16   21 ar   
    26   17   18 ar   
    27   17   37 1    
    28   18   19 ar   
    29   19   20 ar   
    30   19   38 1    
    31   20   21 ar   
    32   21   22 1    
    33   22   23 1    
    34   22   39 1    
    35   23   24 1    
    36   23   25 1    
    37   23   40 1    
    38   24   41 1    
    39   24   42 1    
    40   24   43 1    
    41   25   26 1    
    42   25   44 1    
    43   25   45 1    
    44   26   27 ar   
    45   26   30 ar   
    46   27   28 ar   
    47   28   29 ar   
    48   28   46 1    
    49   29   30 ar   
@<TRIPOS>SUBSTRUCTURE
     1 533         1 GROUP             0 A     ****    0 ROOT    
@<TRIPOS>MOLECULE
p38a_2f
46   49    2
SMALL
USER_CHARGES


@<TRIPOS>ATOM
      1 C1         31.6235   38.9529   26.1544 C.3       1 3FN        -0.1200 
      2 C2         31.0952   38.3551   27.4684 C.3       1 3FN         0.1400 
      3 C4         33.0541   38.9788   28.6539 C.3       1 3FN         0.1400 
      4 C5         33.6809   39.6144   27.4031 C.3       1 3FN        -0.1200 
      5 C24        38.2632   36.7144   17.0134 C.ar      1 3FN        -0.1150 
      6 O3         31.6350   39.0631   28.5784 O.3       1 3FN        -0.4000 
      7 C15        34.5448   34.9770   21.1828 C.ar      1 3FN         0.5567 
      8 C25        37.5969   36.1886   18.1373 C.ar      1 3FN         0.2200 
      9 C8         34.0445   38.9756   23.7378 C.ar      1 3FN         0.9663 
     10 C6         33.1562   38.9294   26.1332 C.3       1 3FN         0.1400 
     11 C10        34.8025   37.8108   21.4407 C.ar      1 3FN        -0.4920 
     12 C17        35.2536   37.1252   20.2344 C.ar      1 3FN        -0.1150 
     13 C23        37.6232   36.7427   15.7594 C.ar      1 3FN         0.2200 
     14 C22        36.3272   36.2163   15.6228 C.ar      1 3FN        -0.1150 
     15 C21        35.6719   35.6684   16.7395 C.ar      1 3FN        -0.1150 
     16 C9         34.3067   37.0366   22.5109 C.ar      1 3FN         0.7490 
     17 C11        34.8522   39.2088   21.6169 C.ar      1 3FN         0.6530 
     18 C16        35.1646   35.7815   20.1251 C.ar      1 3FN         0.0283 
     19 C20        36.2931   35.6640   18.0028 C.ar      1 3FN         0.0850 
     20 C18        33.6690   34.8315   23.4618 C.3       1 3FN        -0.1100 
     21 H21        38.0824   36.1953   19.1020 H         1 3FN        -0.2200 
     22 O26        35.6498   35.0616   19.0536 O.3       1 3FN        -0.1700 
     23 N7         34.4789   39.7925   22.7772 N.ar      1 3FN        -0.8390 
     24 O19        34.3290   33.7761   21.0235 O.2       1 3FN        -0.5000 
     25 N14        34.2121   35.6181   22.3415 N.pl3     1 3FN        -0.1550 
     26 N12        33.9306   37.6499   23.6560 N.ar      1 3FN        -0.8390 
     27 N13        33.6717   39.5652   24.9268 N.pl3     1 3FN        -0.7043 
     28 H11        31.2200   38.3997   25.3053 H         1 3FN         0.0600 
     29 H12        31.2771   39.9808   26.0536 H         1 3FN         0.0600 
     30 H21        30.0102   38.4341   27.5066 H         1 3FN         0.0300 
     31 H22        31.3432   37.2955   27.5444 H         1 3FN         0.0300 
     32 H41        33.3652   37.9383   28.7608 H         1 3FN         0.0300 
     33 H42        33.3890   39.5054   29.5480 H         1 3FN         0.0300 
     34 H51        33.4274   40.6742   27.3922 H         1 3FN         0.0600 
     35 H52        34.7681   39.5450   27.4512 H         1 3FN         0.0600 
     36 F36        39.4938   37.2107   17.1409 F         1 3FN         0.1150 
     37 H6         33.4882   37.8909   26.1541 H         1 3FN         0.0600 
     38 H17        35.7026   37.7356   19.4667 H         1 3FN         0.1150 
     39 H39        35.8375   36.2249   14.6602 H         1 3FN         0.1150 
     40 H40        34.6916   35.2304   16.6228 H         1 3FN         0.1150 
     41 H11        35.2183   39.8565   20.8356 H         1 3FN         0.0110 
     42 H181       34.0543   35.1876   24.4176 H         1 3FN         0.0600 
     43 H182       32.5822   34.9190   23.4834 H         1 3FN         0.0600 
     44 H183       33.9197   33.7705   23.4230 H         1 3FN         0.0600 
     45 HN1        33.7904   40.5685   24.9712 H         1 3FN         0.3800 
     46 H46        38.1201   37.1734   14.9026 H         1 3FN         0.0000 
@<TRIPOS>BOND
     1    1    2 1    
     2    1   10 1    
     3    1   28 1    
     4    1   29 1    
     5    2    6 1    
     6    2   30 1    
     7    2   31 1    
     8    3    4 1    
     9    3    6 1    
    10    3   32 1    
    11    3   33 1    
    12    4   10 1    
    13    4   34 1    
    14    4   35 1    
    15    5    8 ar   
    16    5   13 ar   
    17    5   36 1    
    18    7   18 ar   
    19    7   24 2    
    20    7   25 ar   
    21    8   19 ar   
    22    8   21 1    
    23    9   23 ar   
    24    9   26 ar   
    25    9   27 1    
    26   10   27 1    
    27   10   37 1    
    28   11   12 ar   
    29   11   16 ar   
    30   11   17 ar   
    31   12   18 ar   
    32   12   38 1    
    33   13   14 ar   
    34   13   46 1    
    35   14   15 ar   
    36   14   39 1    
    37   15   19 ar   
    38   15   40 1    
    39   16   25 ar   
    40   16   26 ar   
    41   17   23 ar   
    42   17   41 1    
    43   18   22 1    
    44   19   22 1    
    45   20   25 1    
    46   20   42 1    
    47   20   43 1    
    48   20   44 1    
    49   27   45 1    
@<TRIPOS>SUBSTRUCTURE
     1 3FN         1 GROUP             0 C     ****    0 ROOT    
     1 3FN        46 GROUP             0       ****    0 ROOT    
@<TRIPOS>MOLECULE
p38a_2v
35   37    2
SMALL
USER_CHARGES


@<TRIPOS>ATOM
      1 C24        38.2632   36.7144   17.0134 C.ar      1 3FN        -0.1150 
      2 C15        34.5448   34.9770   21.1828 C.ar      1 3FN         0.5567 
      3 C25        37.5969   36.1886   18.1373 C.ar      1 3FN         0.2200 
      4 C8         34.0445   38.9756   23.7378 C.ar      1 3FN         0.9663 
      5 C6         33.1562   38.9294   26.1332 C.3       1 3FN         0.1400 
      6 C10        34.8025   37.8108   21.4407 C.ar      1 3FN        -0.4920 
      7 C17        35.2536   37.1252   20.2344 C.ar      1 3FN        -0.1150 
      8 C23        37.6232   36.7427   15.7594 C.ar      1 3FN         0.2200 
      9 C22        36.3272   36.2163   15.6228 C.ar      1 3FN        -0.1150 
     10 C21        35.6719   35.6684   16.7395 C.ar      1 3FN        -0.1150 
     11 C9         34.3067   37.0366   22.5109 C.ar      1 3FN         0.7490 
     12 C11        34.8522   39.2088   21.6169 C.ar      1 3FN         0.6530 
     13 C16        35.1646   35.7815   20.1251 C.ar      1 3FN         0.0283 
     14 C20        36.2931   35.6640   18.0028 C.ar      1 3FN         0.0850 
     15 C18        33.6690   34.8315   23.4618 C.3       1 3FN        -0.1100 
     16 F16        38.2058   36.1970   19.3473 F         1 3FN        -0.2200 
     17 O26        35.6498   35.0616   19.0536 O.3       1 3FN        -0.1700 
     18 N7         34.4789   39.7925   22.7772 N.ar      1 3FN        -0.8390 
     19 O19        34.3290   33.7761   21.0235 O.2       1 3FN        -0.5000 
     20 N14        34.2121   35.6181   22.3415 N.pl3     1 3FN        -0.1550 
     21 N12        33.9306   37.6499   23.6560 N.ar      1 3FN        -0.8390 
     22 N13        33.6717   39.5652   24.9268 N.pl3     1 3FN        -0.7043 
     23 H24        39.2585   37.1158   17.1165 H         1 3FN         0.1150 
     24 H6         33.4882   37.8909   26.1541 H         1 3FN         0.0600 
     25 H17        35.7026   37.7356   19.4667 H         1 3FN         0.1150 
     26 H26        35.8375   36.2249   14.6602 H         1 3FN         0.1150 
     27 H27        34.6916   35.2304   16.6228 H         1 3FN         0.1150 
     28 H11        35.2183   39.8565   20.8356 H         1 3FN         0.0110 
     29 H181       34.0543   35.1876   24.4176 H         1 3FN         0.0600 
     30 H182       32.5822   34.9190   23.4834 H         1 3FN         0.0600 
     31 H183       33.9197   33.7705   23.4230 H         1 3FN         0.0600 
     32 HN1        33.7904   40.5685   24.9712 H         1 3FN         0.3800 
     33 F33        38.2455   37.2821   14.6863 F         1 3FN         0.0000 
     34 H61        33.5333   39.4545   27.0108 H         1 3FN         0.0000 
     35 H62        32.0669   38.9679   26.1277 H         1 3FN         0.0000 
@<TRIPOS>BOND
     1    1    3 ar   
     2    1    8 ar   
     3    1   23 1    
     4    2   13 ar   
     5    2   19 2    
     6    2   20 ar   
     7    3   14 ar   
     8    3   16 1    
     9    4   18 ar   
    10    4   21 ar   
    11    4   22 1    
    12    5   22 1    
    13    5   24 1    
    14    5   34 1    
    15    5   35 1    
    16    6    7 ar   
    17    6   11 ar   
    18    6   12 ar   
    19    7   13 ar   
    20    7   25 1    
    21    8    9 ar   
    22    8   33 1    
    23    9   10 ar   
    24    9   26 1    
    25   10   14 ar   
    26   10   27 1    
    27   11   20 ar   
    28   11   21 ar   
    29   12   18 ar   
    30   12   28 1    
    31   13   17 1    
    32   14   17 1    
    33   15   20 1    
    34   15   29 1    
    35   15   30 1    
    36   15   31 1    
    37   22   32 1    
@<TRIPOS>SUBSTRUCTURE
     1 3FN         1 GROUP             0 C     ****    0 ROOT    
     1 3FN        33 GROUP             0       ****    0 ROOT    
@<TRIPOS>MOLECULE
p38a_3fln
46   49    1
SMALL
USER_CHARGES


@<TRIPOS>ATOM
      1 C1         31.6235   38.9529   26.1544 C.3       1 3FN        -0.1200 
      2 C2         31.0952   38.3551   27.4684 C.3       1 3FN         0.1400 
      3 C4         33.0541   38.9788   28.6539 C.3       1 3FN         0.1400 
      4 C5         33.6809   39.6144   27.4031 C.3       1 3FN        -0.1200 
      5 C24        38.2632   36.7144   17.0134 C.ar      1 3FN        -0.1150 
      6 O3         31.6350   39.0631   28.5784 O.3       1 3FN        -0.4000 
      7 C15        34.5448   34.9770   21.1828 C.ar      1 3FN         0.5567 
      8 C25        37.5969   36.1886   18.1373 C.ar      1 3FN         0.2200 
      9 C8         34.0445   38.9756   23.7378 C.ar      1 3FN         0.9663 
     10 C6         33.1562   38.9294   26.1332 C.3       1 3FN         0.1400 
     11 C10        34.8025   37.8108   21.4407 C.ar      1 3FN        -0.4920 
     12 C17        35.2536   37.1252   20.2344 C.ar      1 3FN        -0.1150 
     13 C23        37.6232   36.7427   15.7594 C.ar      1 3FN         0.2200 
     14 C22        36.3272   36.2163   15.6228 C.ar      1 3FN        -0.1150 
     15 C21        35.6719   35.6684   16.7395 C.ar      1 3FN        -0.1150 
     16 C9         34.3067   37.0366   22.5109 C.ar      1 3FN         0.7490 
     17 C11        34.8522   39.2088   21.6169 C.ar      1 3FN         0.6530 
     18 C16        35.1646   35.7815   20.1251 C.ar      1 3FN         0.0283 
     19 C20        36.2931   35.6640   18.0028 C.ar      1 3FN         0.0850 
     20 C18        33.6690   34.8315   23.4618 C.3       1 3FN        -0.1100 
     21 F2         38.2058   36.1970   19.3473 F         1 3FN        -0.2200 
     22 F1         38.2455   37.2821   14.6863 F         1 3FN        -0.2200 
     23 O26        35.6498   35.0616   19.0536 O.3       1 3FN        -0.1700 
     24 N7         34.4789   39.7925   22.7772 N.ar      1 3FN        -0.8390 
     25 O19        34.3290   33.7761   21.0235 O.2       1 3FN        -0.5000 
     26 N14        34.2121   35.6181   22.3415 N.pl3     1 3FN        -0.1550 
     27 N12        33.9306   37.6499   23.6560 N.ar      1 3FN        -0.8390 
     28 N13        33.6717   39.5652   24.9268 N.pl3     1 3FN        -0.7043 
     29 H11        31.2200   38.3997   25.3053 H         1 3FN         0.0600 
     30 H12        31.2771   39.9808   26.0536 H         1 3FN         0.0600 
     31 H21        30.0102   38.4341   27.5066 H         1 3FN         0.0300 
     32 H22        31.3432   37.2955   27.5444 H         1 3FN         0.0300 
     33 H41        33.3652   37.9383   28.7608 H         1 3FN         0.0300 
     34 H42        33.3890   39.5054   29.5480 H         1 3FN         0.0300 
     35 H51        33.4274   40.6742   27.3922 H         1 3FN         0.0600 
     36 H52        34.7681   39.5450   27.4512 H         1 3FN         0.0600 
     37 H24        39.2585   37.1158   17.1165 H         1 3FN         0.1150 
     38 H6         33.4882   37.8909   26.1541 H         1 3FN         0.0600 
     39 H17        35.7026   37.7356   19.4667 H         1 3FN         0.1150 
     40 H22        35.8385   36.2249   14.6624 H         1 3FN         0.1150 
     41 H21        34.6956   35.2322   16.6233 H         1 3FN         0.1150 
     42 H11        35.2183   39.8565   20.8356 H         1 3FN         0.0110 
     43 H181       34.0543   35.1876   24.4176 H         1 3FN         0.0600 
     44 H182       32.5822   34.9190   23.4834 H         1 3FN         0.0600 
     45 H183       33.9197   33.7705   23.4230 H         1 3FN         0.0600 
     46 HN1        33.7904   40.5685   24.9712 H         1 3FN         0.3800 
@<TRIPOS>BOND
     1    1    2 1    
     2    1   10 1    
     3    1   29 1    
     4    1   30 1    
     5    2    6 1    
     6    2   31 1    
     7    2   32 1    
     8    3    4 1    
     9    3    6 1    
    10    3   33 1    
    11    3   34 1    
    12    4   10 1    
    13    4   35 1    
    14    4   36 1    
    15    5    8 ar   
    16    5   13 ar   
    17    5   37 1    
    18    7   18 ar   
    19    7   25 2    
    20    7   26 ar   
    21    8   19 ar   
    22    8   21 1    
    23    9   24 ar   
    24    9   27 ar   
    25    9   28 1    
    26   10   28 1    
    27   10   38 1    
    28   11   12 ar   
    29   11   16 ar   
    30   11   17 ar   
    31   12   18 ar   
    32   12   39 1    
    33   13   14 ar   
    34   13   22 1    
    35   14   15 ar   
    36   14   40 1    
    37   15   19 ar   
    38   15   41 1    
    39   16   26 ar   
    40   16   27 ar   
    41   17   24 ar   
    42   17   42 1    
    43   18   23 1    
    44   19   23 1    
    45   20   26 1    
    46   20   43 1    
    47   20   44 1    
    48   20   45 1    
    49   28   46 1    
@<TRIPOS>SUBSTRUCTURE
     1 3FN         1 GROUP             0 C     ****    0 ROOT    
@<TRIPOS>MOLECULE
p38a_2t
47   50    2
SMALL
USER_CHARGES


@<TRIPOS>ATOM
      1 C24        38.2632   36.7144   17.0134 C.ar      1 3FN        -0.1150 
      2 C15        34.5448   34.9770   21.1828 C.ar      1 3FN         0.5567 
      3 C25        37.5969   36.1886   18.1373 C.ar      1 3FN         0.2200 
      4 C8         34.0445   38.9756   23.7378 C.ar      1 3FN         0.9663 
      5 C10        34.8025   37.8108   21.4407 C.ar      1 3FN        -0.4920 
      6 C17        35.2536   37.1252   20.2344 C.ar      1 3FN        -0.1150 
      7 C23        37.6232   36.7427   15.7594 C.ar      1 3FN         0.2200 
      8 C22        36.3272   36.2163   15.6228 C.ar      1 3FN        -0.1150 
      9 C21        35.6719   35.6684   16.7395 C.ar      1 3FN        -0.1150 
     10 C9         34.3067   37.0366   22.5109 C.ar      1 3FN         0.7490 
     11 C11        34.8522   39.2088   21.6169 C.ar      1 3FN         0.6530 
     12 C16        35.1646   35.7815   20.1251 C.ar      1 3FN         0.0283 
     13 C20        36.2931   35.6640   18.0028 C.ar      1 3FN         0.0850 
     14 F14        38.2058   36.1970   19.3473 F         1 3FN        -0.2200 
     15 O26        35.6498   35.0616   19.0536 O.3       1 3FN        -0.1700 
     16 N7         34.4789   39.7925   22.7772 N.ar      1 3FN        -0.8390 
     17 O19        34.3290   33.7761   21.0235 O.2       1 3FN        -0.5000 
     18 N14        34.2121   35.6181   22.3415 N.pl3     1 3FN        -0.1550 
     19 N12        33.9306   37.6499   23.6560 N.ar      1 3FN        -0.8390 
     20 N13        33.6717   39.5652   24.9268 N.pl3     1 3FN        -0.7043 
     21 H24        39.2591   37.1167   17.1187 H         1 3FN         0.1150 
     22 H17        35.7054   37.7328   19.4650 H         1 3FN         0.1150 
     23 H23        35.8420   36.2282   14.6576 H         1 3FN         0.1150 
     24 H24        34.6848   35.2436   16.6304 H         1 3FN         0.1150 
     25 H11        35.2203   39.8603   20.8379 H         1 3FN         0.0110 
     26 HN1        33.7698   40.5676   24.9297 H         1 3FN         0.3800 
     27 F27        38.2455   37.2821   14.6863 F         1 3FN         0.0000 
     28 C28        31.0952   38.3551   27.4684 C.3       1 3FN         0.0000 
     29 C29        31.6235   38.9529   26.1544 C.3       1 3FN         0.0000 
     30 C30        33.1562   38.9294   26.1332 C.3       1 3FN         0.0000 
     31 C31        33.6809   39.6144   27.4031 C.3       1 3FN         0.0000 
     32 C32        33.0541   38.9788   28.6539 C.3       1 3FN         0.0000 
     33 O33        31.6350   39.0631   28.5784 O.3       1 3FN         0.0000 
     34 H34        31.3463   37.2957   27.5416 H         1 3FN         0.0000 
     35 H35        30.0078   38.4257   27.5010 H         1 3FN         0.0000 
     36 H36        31.2579   39.9756   26.0539 H         1 3FN         0.0000 
     37 H37        31.2258   38.3917   25.3078 H         1 3FN         0.0000 
     38 H38        33.4880   37.8899   26.1488 H         1 3FN         0.0000 
     39 H39        34.7675   39.5359   27.4548 H         1 3FN         0.0000 
     40 H40        33.4414   40.6785   27.3878 H         1 3FN         0.0000 
     41 H41        33.3636   37.9376   28.7590 H         1 3FN         0.0000 
     42 H42        33.3909   39.5019   29.5492 H         1 3FN         0.0000 
     43 C43        33.6690   34.8315   23.4618 C.3       1 3FN         0.0000 
     44 H44        33.9150   33.7698   23.4167 H         1 3FN         0.0000 
     45 H45        34.0576   35.1909   24.4151 H         1 3FN         0.0000 
     46 C46        32.1750   34.9620   23.4939 C.1       1 3FN         0.0000 
     47 N47        31.0220   35.0435   23.5440 N.1       1 3FN        -0.3216 
@<TRIPOS>BOND
     1    1    3 ar   
     2    1    7 ar   
     3    1   21 1    
     4    2   12 ar   
     5    2   17 2    
     6    2   18 ar   
     7    3   13 ar   
     8    3   14 1    
     9    4   16 ar   
    10    4   19 ar   
    11    4   20 1    
    12    5    6 ar   
    13    5   10 ar   
    14    5   11 ar   
    15    6   12 ar   
    16    6   22 1    
    17    7    8 ar   
    18    7   27 1    
    19    8    9 ar   
    20    8   23 1    
    21    9   13 ar   
    22    9   24 1    
    23   10   18 ar   
    24   10   19 ar   
    25   11   16 ar   
    26   11   25 1    
    27   12   15 1    
    28   13   15 1    
    29   18   43 1    
    30   20   26 1    
    31   20   30 1    
    32   28   29 1    
    33   28   33 1    
    34   28   34 1    
    35   28   35 1    
    36   29   30 1    
    37   29   36 1    
    38   29   37 1    
    39   30   31 1    
    40   30   38 1    
    41   31   32 1    
    42   31   39 1    
    43   31   40 1    
    44   32   33 1    
    45   32   41 1    
    46   32   42 1    
    47   43   44 1    
    48   43   45 1    
    49   43   46 1    
    50   46   47 3    
@<TRIPOS>SUBSTRUCTURE
     1 3FN         1 GROUP             0 C     ****    0 ROOT    
     1 3FN        27 GROUP             0       ****    0 ROOT    
@<TRIPOS>MOLECULE
p38a_2r
56   59    2
SMALL
USER_CHARGES


@<TRIPOS>ATOM
      1 C24        38.2632   36.7144   17.0134 C.ar      1 3FN        -0.1150 
      2 C15        34.5448   34.9770   21.1828 C.ar      1 3FN         0.5567 
      3 C25        37.5969   36.1886   18.1373 C.ar      1 3FN         0.2200 
      4 C8         34.0445   38.9756   23.7378 C.ar      1 3FN         0.9663 
      5 C10        34.8025   37.8108   21.4407 C.ar      1 3FN        -0.4920 
      6 C17        35.2536   37.1252   20.2344 C.ar      1 3FN        -0.1150 
      7 C23        37.6232   36.7427   15.7594 C.ar      1 3FN         0.2200 
      8 C22        36.3272   36.2163   15.6228 C.ar      1 3FN        -0.1150 
      9 C21        35.6719   35.6684   16.7395 C.ar      1 3FN        -0.1150 
     10 C9         34.3067   37.0366   22.5109 C.ar      1 3FN         0.7490 
     11 C11        34.8522   39.2088   21.6169 C.ar      1 3FN         0.6530 
     12 C16        35.1646   35.7815   20.1251 C.ar      1 3FN         0.0283 
     13 C20        36.2931   35.6640   18.0028 C.ar      1 3FN         0.0850 
     14 F14        38.2058   36.1970   19.3473 F         1 3FN        -0.2200 
     15 O26        35.6498   35.0616   19.0536 O.3       1 3FN        -0.1700 
     16 N7         34.4789   39.7925   22.7772 N.ar      1 3FN        -0.8390 
     17 O19        34.3290   33.7761   21.0235 O.2       1 3FN        -0.5000 
     18 N14        34.2121   35.6181   22.3415 N.pl3     1 3FN        -0.1550 
     19 N12        33.9306   37.6499   23.6560 N.ar      1 3FN        -0.8390 
     20 N13        33.6717   39.5652   24.9268 N.pl3     1 3FN        -0.7043 
     21 H24        39.2591   37.1167   17.1187 H         1 3FN         0.1150 
     22 H17        35.7054   37.7328   19.4650 H         1 3FN         0.1150 
     23 H23        35.8420   36.2282   14.6576 H         1 3FN         0.1150 
     24 H24        34.6848   35.2436   16.6304 H         1 3FN         0.1150 
     25 H11        35.2203   39.8603   20.8379 H         1 3FN         0.0110 
     26 HN1        33.7698   40.5676   24.9297 H         1 3FN         0.3800 
     27 F27        38.2455   37.2821   14.6863 F         1 3FN         0.0000 
     28 C28        31.0952   38.3551   27.4684 C.3       1 3FN         0.0000 
     29 C29        31.6235   38.9529   26.1544 C.3       1 3FN         0.0000 
     30 C30        33.1562   38.9294   26.1332 C.3       1 3FN         0.0000 
     31 C31        33.6809   39.6144   27.4031 C.3       1 3FN         0.0000 
     32 C32        33.0541   38.9788   28.6539 C.3       1 3FN         0.0000 
     33 O33        31.6350   39.0631   28.5784 O.3       1 3FN         0.0000 
     34 H34        31.3463   37.2957   27.5416 H         1 3FN         0.0000 
     35 H35        30.0078   38.4257   27.5010 H         1 3FN         0.0000 
     36 H36        31.2579   39.9756   26.0539 H         1 3FN         0.0000 
     37 H37        31.2258   38.3917   25.3078 H         1 3FN         0.0000 
     38 H38        33.4880   37.8899   26.1488 H         1 3FN         0.0000 
     39 H39        34.7675   39.5359   27.4548 H         1 3FN         0.0000 
     40 H40        33.4414   40.6785   27.3878 H         1 3FN         0.0000 
     41 H41        33.3636   37.9376   28.7590 H         1 3FN         0.0000 
     42 H42        33.3909   39.5019   29.5492 H         1 3FN         0.0000 
     43 C43        33.6690   34.8315   23.4618 C.3       1 3FN         0.0000 
     44 H44        33.9150   33.7698   23.4167 H         1 3FN         0.0000 
     45 H45        34.0576   35.1909   24.4151 H         1 3FN         0.0000 
     46 C46        32.1750   34.9620   23.4939 C.3       1 3FN         0.0000 
     47 O47        31.8325   36.2887   23.6581 O.3       1 3FN         0.0000 
     48 H48        32.6055   36.9194   23.7259 H         1 3FN         0.0000 
     49 C49        31.6274   34.1591   24.6365 C.3       1 3FN         0.0000 
     50 H50        31.8979   33.1112   24.5068 H         1 3FN         0.0000 
     51 H51        32.0446   34.5288   25.5732 H         1 3FN         0.0000 
     52 H52        30.5418   34.2539   24.6598 H         1 3FN         0.0000 
     53 C53        31.6009   34.4532   22.2049 C.3       1 3FN         0.0000 
     54 H54        31.8714   33.4053   22.0752 H         1 3FN         0.0000 
     55 H55        30.5153   34.5480   22.2282 H         1 3FN         0.0000 
     56 H56        31.9988   35.0366   21.3746 H         1 3FN         0.0000 
@<TRIPOS>BOND
     1    1    3 ar   
     2    1    7 ar   
     3    1   21 1    
     4    2   12 ar   
     5    2   17 2    
     6    2   18 ar   
     7    3   13 ar   
     8    3   14 1    
     9    4   16 ar   
    10    4   19 ar   
    11    4   20 1    
    12    5    6 ar   
    13    5   10 ar   
    14    5   11 ar   
    15    6   12 ar   
    16    6   22 1    
    17    7    8 ar   
    18    7   27 1    
    19    8    9 ar   
    20    8   23 1    
    21    9   13 ar   
    22    9   24 1    
    23   10   18 ar   
    24   10   19 ar   
    25   11   16 ar   
    26   11   25 1    
    27   12   15 1    
    28   13   15 1    
    29   18   43 1    
    30   20   26 1    
    31   20   30 1    
    32   28   29 1    
    33   28   33 1    
    34   28   34 1    
    35   28   35 1    
    36   29   30 1    
    37   29   36 1    
    38   29   37 1    
    39   30   31 1    
    40   30   38 1    
    41   31   32 1    
    42   31   39 1    
    43   31   40 1    
    44   32   33 1    
    45   32   41 1    
    46   32   42 1    
    47   43   44 1    
    48   43   45 1    
    49   43   46 1    
    50   46   47 1    
    51   46   49 1    
    52   46   53 1    
    53   47   48 1    
    54   49   50 1    
    55   49   51 1    
    56   49   52 1    
    57   53   54 1    
    58   53   55 1    
    59   53   56 1    
@<TRIPOS>SUBSTRUCTURE
     1 3FN         1 GROUP             0 C     ****    0 ROOT    
     1 3FN        27 GROUP             0       ****    0 ROOT    
@<TRIPOS>MOLECULE
p38a_3fly
41   43    1
SMALL
USER_CHARGES


@<TRIPOS>ATOM
      1 C2         34.8522   39.2088   21.6169 C.ar      1 FLY         0.6530 
      2 C3         34.3067   37.0366   22.5109 C.ar      1 FLY         0.7490 
      3 N1         34.4789   39.7925   22.7772 N.ar      1 FLY        -0.8390 
      4 C4         34.8025   37.8108   21.4407 C.ar      1 FLY        -0.4920 
      5 C5         35.2536   37.1252   20.2344 C.ar      1 FLY        -0.1150 
      6 C6         35.1646   35.7815   20.1251 C.ar      1 FLY         0.0283 
      7 C7         34.5448   34.9770   21.1828 C.ar      1 FLY         0.5567 
      8 C9         34.0445   38.9756   23.7378 C.ar      1 FLY         0.9663 
      9 C11        33.1252   38.9303   26.1175 C.3       1 FLY         0.1400 
     10 C13        33.6286   39.6235   27.3897 C.3       1 FLY        -0.1800 
     11 C14        31.5940   38.9157   26.0511 C.3       1 FLY        -0.1800 
     12 C17        36.2931   35.6640   18.0028 C.ar      1 FLY         0.0850 
     13 C18        35.6719   35.6684   16.7395 C.ar      1 FLY        -0.1150 
     14 C19        36.3272   36.2163   15.6228 C.ar      1 FLY        -0.1150 
     15 C20        37.6232   36.7427   15.7594 C.ar      1 FLY         0.2200 
     16 C21        38.2632   36.7144   17.0134 C.ar      1 FLY        -0.1150 
     17 C22        37.5969   36.1886   18.1373 C.ar      1 FLY         0.2200 
     18 F24        38.2455   37.2821   14.6863 F         1 FLY        -0.2200 
     19 F23        38.2073   36.1901   19.3452 F         1 FLY        -0.2200 
     20 O16        35.6498   35.0616   19.0536 O.3       1 FLY        -0.1700 
     21 O15        34.3290   33.7761   21.0235 O.2       1 FLY        -0.5000 
     22 N8         34.2121   35.6181   22.3415 N.pl3     1 FLY        -0.1550 
     23 C25        33.6690   34.8315   23.4618 C.3       1 FLY        -0.1100 
     24 N10        33.9306   37.6499   23.6560 N.ar      1 FLY        -0.8390 
     25 N12        33.6717   39.5652   24.9268 N.pl3     1 FLY        -0.7043 
     26 H2         35.2188   39.8533   20.8344 H         1 FLY         0.0110 
     27 H5         35.6978   37.7373   19.4656 H         1 FLY         0.1150 
     28 H11        33.4761   37.8989   26.1537 H         1 FLY         0.0600 
     29 H131       34.7180   39.6386   27.4275 H         1 FLY         0.0600 
     30 H132       33.2760   40.6517   27.4488 H         1 FLY         0.0600 
     31 H133       33.2748   39.1051   28.2812 H         1 FLY         0.0600 
     32 H141       31.2411   38.3469   25.1903 H         1 FLY         0.0600 
     33 H142       31.1686   38.4572   26.9436 H         1 FLY         0.0600 
     34 H143       31.1963   39.9265   25.9632 H         1 FLY         0.0600 
     35 H18        34.6845   35.2504   16.6290 H         1 FLY         0.1150 
     36 H19        35.8317   36.2368   14.6645 H         1 FLY         0.1150 
     37 H21        39.2555   37.1229   17.1196 H         1 FLY         0.1150 
     38 H251       33.9197   33.7705   23.4230 H         1 FLY         0.0600 
     39 H252       34.0543   35.1876   24.4176 H         1 FLY         0.0600 
     40 H253       32.5822   34.9190   23.4834 H         1 FLY         0.0600 
     41 HN1        33.8118   40.5645   24.9821 H         1 FLY         0.3800 
@<TRIPOS>BOND
     1    1    3 ar   
     2    1    4 ar   
     3    1   26 1    
     4    2    4 ar   
     5    2   22 ar   
     6    2   24 ar   
     7    3    8 ar   
     8    4    5 ar   
     9    5    6 ar   
    10    5   27 1    
    11    6    7 ar   
    12    6   20 1    
    13    7   21 2    
    14    7   22 ar   
    15    8   24 ar   
    16    8   25 1    
    17    9   10 1    
    18    9   11 1    
    19    9   25 1    
    20    9   28 1    
    21   10   29 1    
    22   10   30 1    
    23   10   31 1    
    24   11   32 1    
    25   11   33 1    
    26   11   34 1    
    27   12   13 ar   
    28   12   17 ar   
    29   12   20 1    
    30   13   14 ar   
    31   13   35 1    
    32   14   15 ar   
    33   14   36 1    
    34   15   16 ar   
    35   15   18 1    
    36   16   17 ar   
    37   16   37 1    
    38   17   19 1    
    39   22   23 1    
    40   23   38 1    
    41   23   39 1    
    42   23   40 1    
    43   25   41 1    
@<TRIPOS>SUBSTRUCTURE
     1 FLY         1 GROUP             0 A     ****    0 ROOT    
@<TRIPOS>MOLECULE
p38a_2u
64   68    2
SMALL
USER_CHARGES


@<TRIPOS>ATOM
      1 C24        38.2632   36.7144   17.0134 C.ar      1 3FN        -0.1150 
      2 C15        34.5448   34.9770   21.1828 C.ar      1 3FN         0.5567 
      3 C25        37.5969   36.1886   18.1373 C.ar      1 3FN         0.2200 
      4 C8         34.0445   38.9756   23.7378 C.ar      1 3FN         0.9663 
      5 C10        34.8025   37.8108   21.4407 C.ar      1 3FN        -0.4920 
      6 C17        35.2536   37.1252   20.2344 C.ar      1 3FN        -0.1150 
      7 C23        37.6232   36.7427   15.7594 C.ar      1 3FN         0.2200 
      8 C22        36.3272   36.2163   15.6228 C.ar      1 3FN        -0.1150 
      9 C21        35.6719   35.6684   16.7395 C.ar      1 3FN        -0.1150 
     10 C9         34.3067   37.0366   22.5109 C.ar      1 3FN         0.7490 
     11 C11        34.8522   39.2088   21.6169 C.ar      1 3FN         0.6530 
     12 C16        35.1646   35.7815   20.1251 C.ar      1 3FN         0.0283 
     13 C20        36.2931   35.6640   18.0028 C.ar      1 3FN         0.0850 
     14 F14        38.2058   36.1970   19.3473 F         1 3FN        -0.2200 
     15 O26        35.6498   35.0616   19.0536 O.3       1 3FN        -0.1700 
     16 N7         34.4789   39.7925   22.7772 N.ar      1 3FN        -0.8390 
     17 O19        34.3290   33.7761   21.0235 O.2       1 3FN        -0.5000 
     18 N14        34.2121   35.6181   22.3415 N.pl3     1 3FN        -0.1550 
     19 N12        33.9306   37.6499   23.6560 N.ar      1 3FN        -0.8390 
     20 N13        33.6717   39.5652   24.9268 N.pl3     1 3FN        -0.7043 
     21 H24        39.2590   37.1169   17.1189 H         1 3FN         0.1150 
     22 H17        35.7052   37.7326   19.4650 H         1 3FN         0.1150 
     23 H23        35.8420   36.2284   14.6576 H         1 3FN         0.1150 
     24 H24        34.6846   35.2440   16.6308 H         1 3FN         0.1150 
     25 H11        35.2195   39.8602   20.8376 H         1 3FN         0.0110 
     26 HN1        33.7702   40.5677   24.9292 H         1 3FN         0.3800 
     27 F27        38.2455   37.2821   14.6863 F         1 3FN         0.0000 
     28 C28        31.0952   38.3551   27.4684 C.3       1 3FN         0.0000 
     29 C29        31.6235   38.9529   26.1544 C.3       1 3FN         0.0000 
     30 C30        33.1562   38.9294   26.1332 C.3       1 3FN         0.0000 
     31 C31        33.6809   39.6144   27.4031 C.3       1 3FN         0.0000 
     32 C32        33.0541   38.9788   28.6539 C.3       1 3FN         0.0000 
     33 O33        31.6350   39.0631   28.5784 O.3       1 3FN         0.0000 
     34 H34        31.3462   37.2957   27.5420 H         1 3FN         0.0000 
     35 H35        30.0078   38.4258   27.5011 H         1 3FN         0.0000 
     36 H36        31.2581   39.9758   26.0545 H         1 3FN         0.0000 
     37 H37        31.2252   38.3926   25.3075 H         1 3FN         0.0000 
     38 H38        33.4881   37.8900   26.1492 H         1 3FN         0.0000 
     39 H39        34.7676   39.5365   27.4548 H         1 3FN         0.0000 
     40 H40        33.4411   40.6784   27.3878 H         1 3FN         0.0000 
     41 H41        33.3635   37.9376   28.7593 H         1 3FN         0.0000 
     42 H42        33.3907   39.5020   29.5492 H         1 3FN         0.0000 
     43 C43        31.4367   33.9842   24.4747 C.3       1 3FN         0.0000 
     44 C44        32.1017   34.7423   23.2962 C.3       1 3FN         0.0000 
     45 C45        33.6324   34.8358   23.4295 C.3       1 3FN         0.0000 
     46 C46        34.0303   35.4232   24.8056 C.3       1 3FN         0.0000 
     47 C47        32.9480   35.2719   25.9033 C.3       1 3FN         0.0000 
     48 H48        31.2735   32.9388   24.2044 H         1 3FN         0.0000 
     49 H49        30.4438   34.4027   24.6545 H         1 3FN         0.0000 
     50 H50        31.6980   35.7558   23.2610 H         1 3FN         0.0000 
     51 H51        31.8207   34.2820   22.3479 H         1 3FN         0.0000 
     52 H52        34.0484   33.8308   23.3349 H         1 3FN         0.0000 
     53 H53        34.9558   34.9495   25.1370 H         1 3FN         0.0000 
     54 H54        34.2690   36.4830   24.7039 H         1 3FN         0.0000 
     55 H55        33.4118   35.2927   26.8917 H         1 3FN         0.0000 
     56 H56        32.2499   36.1123   25.8745 H         1 3FN         0.0000 
     57 N57        32.2137   34.0194   25.7232 N.pl3     1 3FN        -0.3216 
     58 S58        31.1468   33.7538   27.0718 S.o2      1 3FN         1.2618 
     59 O59        29.8231   33.4236   26.5326 O.2       1 3FN        -0.7248 
     60 O60        31.3399   34.8604   28.0154 O.2       1 3FN        -0.7244 
     61 C61        31.8040   32.2816   27.8262 C.3       1 3FN         0.0000 
     62 H62        31.2020   32.0193   28.6961 H         1 3FN         0.0000 
     63 H63        31.7794   31.4628   27.1070 H         1 3FN         0.0000 
     64 H64        32.8332   32.4611   28.1372 H         1 3FN         0.0000 
@<TRIPOS>BOND
     1    1    3 ar   
     2    1    7 ar   
     3    1   21 1    
     4    2   12 ar   
     5    2   17 2    
     6    2   18 ar   
     7    3   13 ar   
     8    3   14 1    
     9    4   16 ar   
    10    4   19 ar   
    11    4   20 1    
    12    5    6 ar   
    13    5   10 ar   
    14    5   11 ar   
    15    6   12 ar   
    16    6   22 1    
    17    7    8 ar   
    18    7   27 1    
    19    8    9 ar   
    20    8   23 1    
    21    9   13 ar   
    22    9   24 1    
    23   10   18 ar   
    24   10   19 ar   
    25   11   16 ar   
    26   11   25 1    
    27   12   15 1    
    28   13   15 1    
    29   18   45 1    
    30   20   26 1    
    31   20   30 1    
    32   28   29 1    
    33   28   33 1    
    34   28   34 1    
    35   28   35 1    
    36   29   30 1    
    37   29   36 1    
    38   29   37 1    
    39   30   31 1    
    40   30   38 1    
    41   31   32 1    
    42   31   39 1    
    43   31   40 1    
    44   32   33 1    
    45   32   41 1    
    46   32   42 1    
    47   43   44 1    
    48   43   48 1    
    49   43   49 1    
    50   43   57 1    
    51   44   45 1    
    52   44   50 1    
    53   44   51 1    
    54   45   46 1    
    55   45   52 1    
    56   46   47 1    
    57   46   53 1    
    58   46   54 1    
    59   47   55 1    
    60   47   56 1    
    61   47   57 1    
    62   57   58 1    
    63   58   59 2    
    64   58   60 2    
    65   58   61 1    
    66   61   62 1    
    67   61   63 1    
    68   61   64 1    
@<TRIPOS>SUBSTRUCTURE
     1 3FN         1 GROUP             0 C     ****    0 ROOT    
     1 3FN        27 GROUP             0       ****    0 ROOT    
@<TRIPOS>MOLECULE
p38a_2l
49   52    2
SMALL
USER_CHARGES


@<TRIPOS>ATOM
      1 C24        38.2632   36.7144   17.0134 C.ar      1 3FN        -0.1150 
      2 C15        34.5448   34.9770   21.1828 C.ar      1 3FN         0.5567 
      3 C25        37.5969   36.1886   18.1373 C.ar      1 3FN         0.2200 
      4 C8         34.0445   38.9756   23.7378 C.ar      1 3FN         0.9663 
      5 C10        34.8025   37.8108   21.4407 C.ar      1 3FN        -0.4920 
      6 C17        35.2536   37.1252   20.2344 C.ar      1 3FN        -0.1150 
      7 C23        37.6232   36.7427   15.7594 C.ar      1 3FN         0.2200 
      8 C22        36.3272   36.2163   15.6228 C.ar      1 3FN        -0.1150 
      9 C21        35.6719   35.6684   16.7395 C.ar      1 3FN        -0.1150 
     10 C9         34.3067   37.0366   22.5109 C.ar      1 3FN         0.7490 
     11 C11        34.8522   39.2088   21.6169 C.ar      1 3FN         0.6530 
     12 C16        35.1646   35.7815   20.1251 C.ar      1 3FN         0.0283 
     13 C20        36.2931   35.6640   18.0028 C.ar      1 3FN         0.0850 
     14 F14        38.2058   36.1970   19.3473 F         1 3FN        -0.2200 
     15 O26        35.6498   35.0616   19.0536 O.3       1 3FN        -0.1700 
     16 N7         34.4789   39.7925   22.7772 N.ar      1 3FN        -0.8390 
     17 O19        34.3290   33.7761   21.0235 O.2       1 3FN        -0.5000 
     18 N14        34.2121   35.6181   22.3415 N.pl3     1 3FN        -0.1550 
     19 N12        33.9306   37.6499   23.6560 N.ar      1 3FN        -0.8390 
     20 N13        33.6717   39.5652   24.9268 N.pl3     1 3FN        -0.7043 
     21 H24        39.2591   37.1167   17.1187 H         1 3FN         0.1150 
     22 H17        35.7054   37.7328   19.4650 H         1 3FN         0.1150 
     23 H23        35.8420   36.2282   14.6576 H         1 3FN         0.1150 
     24 H24        34.6848   35.2436   16.6304 H         1 3FN         0.1150 
     25 H11        35.2203   39.8603   20.8379 H         1 3FN         0.0110 
     26 HN1        33.7698   40.5676   24.9297 H         1 3FN         0.3800 
     27 F27        38.2455   37.2821   14.6863 F         1 3FN         0.0000 
     28 C28        31.0952   38.3551   27.4684 C.3       1 3FN         0.0000 
     29 C29        31.6235   38.9529   26.1544 C.3       1 3FN         0.0000 
     30 C30        33.1562   38.9294   26.1332 C.3       1 3FN         0.0000 
     31 C31        33.6809   39.6144   27.4031 C.3       1 3FN         0.0000 
     32 C32        33.0541   38.9788   28.6539 C.3       1 3FN         0.0000 
     33 O33        31.6350   39.0631   28.5784 O.3       1 3FN         0.0000 
     34 H34        31.3463   37.2957   27.5416 H         1 3FN         0.0000 
     35 H35        30.0078   38.4257   27.5010 H         1 3FN         0.0000 
     36 H36        31.2579   39.9756   26.0539 H         1 3FN         0.0000 
     37 H37        31.2258   38.3917   25.3078 H         1 3FN         0.0000 
     38 H38        33.4880   37.8899   26.1488 H         1 3FN         0.0000 
     39 H39        34.7675   39.5359   27.4548 H         1 3FN         0.0000 
     40 H40        33.4414   40.6785   27.3878 H         1 3FN         0.0000 
     41 H41        33.3636   37.9376   28.7590 H         1 3FN         0.0000 
     42 H42        33.3909   39.5019   29.5492 H         1 3FN         0.0000 
     43 C43        33.6690   34.8315   23.4618 C.3       1 3FN         0.0000 
     44 H44        33.9150   33.7698   23.4167 H         1 3FN         0.0000 
     45 H45        34.0576   35.1909   24.4151 H         1 3FN         0.0000 
     46 C46        32.1750   34.9620   23.4939 C.3       1 3FN         0.0000 
     47 H47        31.7771   34.3786   24.3242 H         1 3FN         0.0000 
     48 H48        31.9045   36.0099   23.6236 H         1 3FN         0.0000 
     49 H49        31.7578   34.5923   22.5572 H         1 3FN         0.0000 
@<TRIPOS>BOND
     1    1    3 ar   
     2    1    7 ar   
     3    1   21 1    
     4    2   12 ar   
     5    2   17 2    
     6    2   18 ar   
     7    3   13 ar   
     8    3   14 1    
     9    4   16 ar   
    10    4   19 ar   
    11    4   20 1    
    12    5    6 ar   
    13    5   10 ar   
    14    5   11 ar   
    15    6   12 ar   
    16    6   22 1    
    17    7    8 ar   
    18    7   27 1    
    19    8    9 ar   
    20    8   23 1    
    21    9   13 ar   
    22    9   24 1    
    23   10   18 ar   
    24   10   19 ar   
    25   11   16 ar   
    26   11   25 1    
    27   12   15 1    
    28   13   15 1    
    29   18   43 1    
    30   20   26 1    
    31   20   30 1    
    32   28   29 1    
    33   28   33 1    
    34   28   34 1    
    35   28   35 1    
    36   29   30 1    
    37   29   36 1    
    38   29   37 1    
    39   30   31 1    
    40   30   38 1    
    41   31   32 1    
    42   31   39 1    
    43   31   40 1    
    44   32   33 1    
    45   32   41 1    
    46   32   42 1    
    47   43   44 1    
    48   43   45 1    
    49   43   46 1    
    50   46   47 1    
    51   46   48 1    
    52   46   49 1    
@<TRIPOS>SUBSTRUCTURE
     1 3FN         1 GROUP             0 C     ****    0 ROOT    
     1 3FN        27 GROUP             0       ****    0 ROOT    
@<TRIPOS>MOLECULE
p38a_2aa
43   45    2
SMALL
USER_CHARGES


@<TRIPOS>ATOM
      1 C24        38.2632   36.7144   17.0134 C.ar      1 3FN        -0.1150 
      2 C15        34.5448   34.9770   21.1828 C.ar      1 3FN         0.5567 
      3 C25        37.5969   36.1886   18.1373 C.ar      1 3FN         0.2200 
      4 C8         34.0445   38.9756   23.7378 C.ar      1 3FN         0.9663 
      5 C6         32.9303   38.7565   25.8902 C.3       1 3FN         0.1400 
      6 C10        34.8025   37.8108   21.4407 C.ar      1 3FN        -0.4920 
      7 C17        35.2536   37.1252   20.2344 C.ar      1 3FN        -0.1150 
      8 C23        37.6232   36.7427   15.7594 C.ar      1 3FN         0.2200 
      9 C22        36.3272   36.2163   15.6228 C.ar      1 3FN        -0.1150 
     10 C21        35.6719   35.6684   16.7395 C.ar      1 3FN        -0.1150 
     11 C9         34.3067   37.0366   22.5109 C.ar      1 3FN         0.7490 
     12 C11        34.8522   39.2088   21.6169 C.ar      1 3FN         0.6530 
     13 C16        35.1646   35.7815   20.1251 C.ar      1 3FN         0.0283 
     14 C20        36.2931   35.6640   18.0028 C.ar      1 3FN         0.0850 
     15 C18        33.6690   34.8315   23.4618 C.3       1 3FN        -0.1100 
     16 F16        38.2058   36.1970   19.3473 F         1 3FN        -0.2200 
     17 O26        35.6498   35.0616   19.0536 O.3       1 3FN        -0.1700 
     18 N7         34.4789   39.7925   22.7772 N.ar      1 3FN        -0.8390 
     19 O19        34.3290   33.7761   21.0235 O.2       1 3FN        -0.5000 
     20 N14        34.2121   35.6181   22.3415 N.pl3     1 3FN        -0.1550 
     21 N12        33.9306   37.6499   23.6560 N.ar      1 3FN        -0.8390 
     22 N13        33.6717   39.5652   24.9268 N.pl3     1 3FN        -0.7043 
     23 H24        39.2592   37.1166   17.1185 H         1 3FN         0.1150 
     24 C24        33.2406   39.2258   27.2807 C.3       1 3FN         0.0600 
     25 H17        35.7056   37.7327   19.4650 H         1 3FN         0.1150 
     26 H26        35.8422   36.2281   14.6575 H         1 3FN         0.1150 
     27 H27        34.6847   35.2437   16.6306 H         1 3FN         0.1150 
     28 H11        35.2199   39.8604   20.8378 H         1 3FN         0.0110 
     29 H181       34.0543   35.1876   24.4176 H         1 3FN         0.0600 
     30 H182       32.5822   34.9190   23.4834 H         1 3FN         0.0600 
     31 H183       33.9197   33.7705   23.4230 H         1 3FN         0.0600 
     32 HN1        33.5695   40.5662   24.9409 H         1 3FN         0.3800 
     33 F33        38.2455   37.2821   14.6863 F         1 3FN         0.0000 
     34 C34        31.4592   38.8953   25.6322 C.3       1 3FN         0.0000 
     35 O35        30.7584   38.1309   26.5428 O.3       1 3FN         0.0000 
     36 H36        31.3239   37.6304   27.1983 H         1 3FN         0.0000 
     37 H37        31.1691   39.9408   25.7361 H         1 3FN         0.0000 
     38 H38        31.2337   38.5543   24.6218 H         1 3FN         0.0000 
     39 O39        32.5398   38.4614   28.1912 O.3       1 3FN         0.0000 
     40 H40        34.3096   39.1250   27.4681 H         1 3FN         0.0000 
     41 H41        32.9505   40.2713   27.3845 H         1 3FN         0.0000 
     42 H42        32.6868   38.7055   29.1498 H         1 3FN         0.0000 
     43 H6         33.2204   37.7110   25.7863 H         1 3FN         0.0000 
@<TRIPOS>BOND
     1    1    3 ar   
     2    1    8 ar   
     3    1   23 1    
     4    2   13 ar   
     5    2   19 2    
     6    2   20 ar   
     7    3   14 ar   
     8    3   16 1    
     9    4   18 ar   
    10    4   21 ar   
    11    4   22 1    
    12    5   22 1    
    13    5   24 1    
    14    5   34 1    
    15    5   43 1    
    16    6    7 ar   
    17    6   11 ar   
    18    6   12 ar   
    19    7   13 ar   
    20    7   25 1    
    21    8    9 ar   
    22    8   33 1    
    23    9   10 ar   
    24    9   26 1    
    25   10   14 ar   
    26   10   27 1    
    27   11   20 ar   
    28   11   21 ar   
    29   12   18 ar   
    30   12   28 1    
    31   13   17 1    
    32   14   17 1    
    33   15   20 1    
    34   15   29 1    
    35   15   30 1    
    36   15   31 1    
    37   22   32 1    
    38   24   39 1    
    39   24   40 1    
    40   24   41 1    
    41   34   35 1    
    42   34   37 1    
    43   34   38 1    
    44   35   36 1    
    45   39   42 1    
@<TRIPOS>SUBSTRUCTURE
     1 3FN         1 GROUP             0 C     ****    0 ROOT    
     1 3FN        33 GROUP             0       ****    0 ROOT    
@<TRIPOS>MOLECULE
p38a_2gg
48   51    2
SMALL
USER_CHARGES


@<TRIPOS>ATOM
      1 C24        38.2632   36.7144   17.0134 C.ar      1 3FN        -0.1150 
      2 C15        34.5448   34.9770   21.1828 C.ar      1 3FN         0.5567 
      3 C25        37.5969   36.1886   18.1373 C.ar      1 3FN         0.2200 
      4 C8         34.0445   38.9756   23.7378 C.ar      1 3FN         0.9663 
      5 C10        34.8025   37.8108   21.4407 C.ar      1 3FN        -0.4920 
      6 C17        35.2536   37.1252   20.2344 C.ar      1 3FN        -0.1150 
      7 C23        37.6232   36.7427   15.7594 C.ar      1 3FN         0.2200 
      8 C22        36.3272   36.2163   15.6228 C.ar      1 3FN        -0.1150 
      9 C21        35.6719   35.6684   16.7395 C.ar      1 3FN        -0.1150 
     10 C9         34.3067   37.0366   22.5109 C.ar      1 3FN         0.7490 
     11 C11        34.8522   39.2088   21.6169 C.ar      1 3FN         0.6530 
     12 C16        35.1646   35.7815   20.1251 C.ar      1 3FN         0.0283 
     13 C20        36.2931   35.6640   18.0028 C.ar      1 3FN         0.0850 
     14 C18        33.6690   34.8315   23.4618 C.3       1 3FN        -0.1100 
     15 F15        38.2058   36.1970   19.3473 F         1 3FN        -0.2200 
     16 O26        35.6498   35.0616   19.0536 O.3       1 3FN        -0.1700 
     17 N7         34.4789   39.7925   22.7772 N.ar      1 3FN        -0.8390 
     18 O19        34.3290   33.7761   21.0235 O.2       1 3FN        -0.5000 
     19 N14        34.2121   35.6181   22.3415 N.pl3     1 3FN        -0.1550 
     20 N12        33.9306   37.6499   23.6560 N.ar      1 3FN        -0.8390 
     21 N13        33.6717   39.5652   24.9268 N.pl3     1 3FN        -0.7043 
     22 H24        39.2593   37.1164   17.1182 H         1 3FN         0.1150 
     23 H17        35.7053   37.7326   19.4647 H         1 3FN         0.1150 
     24 H24        35.8421   36.2281   14.6576 H         1 3FN         0.1150 
     25 H25        34.6848   35.2434   16.6303 H         1 3FN         0.1150 
     26 H11        35.2198   39.8603   20.8378 H         1 3FN         0.0110 
     27 H181       33.9197   33.7705   23.4230 H         1 3FN         0.0600 
     28 H182       34.0543   35.1876   24.4176 H         1 3FN         0.0600 
     29 H183       32.5822   34.9190   23.4834 H         1 3FN         0.0600 
     30 HN1        33.7546   40.5695   24.9225 H         1 3FN         0.3800 
     31 F31        38.2455   37.2821   14.6863 F         1 3FN         0.0000 
     32 C32        31.1097   37.7762   27.1427 C.3       1 3FN         0.0000 
     33 C33        31.6660   38.5732   25.9600 C.3       1 3FN         0.0000 
     34 C34        33.1562   38.9294   26.1332 C.3       1 3FN         0.0000 
     35 C35        33.4261   39.8197   27.3595 C.3       1 3FN         0.0000 
     36 C36        33.0430   39.1359   28.6745 C.3       1 3FN         0.0000 
     37 H37        31.6298   36.8298   27.2774 H         1 3FN         0.0000 
     38 H38        30.0506   37.5594   27.0129 H         1 3FN         0.0000 
     39 H39        31.0795   39.4846   25.8318 H         1 3FN         0.0000 
     40 H40        31.5246   37.9878   25.0509 H         1 3FN         0.0000 
     41 H41        33.7181   38.0018   26.2577 H         1 3FN         0.0000 
     42 H42        34.4831   40.0851   27.3990 H         1 3FN         0.0000 
     43 H43        32.8736   40.7568   27.2693 H         1 3FN         0.0000 
     44 H44        33.5975   38.2134   28.8358 H         1 3FN         0.0000 
     45 H45        33.2215   39.7864   29.5292 H         1 3FN         0.0000 
     46 S46        31.2684   38.7292   28.6851 S.o2      1 3FN         1.2618 
     47 O47        30.5302   39.9850   28.5066 O.2       1 3FN        -0.7248 
     48 O48        30.9955   37.8410   29.8196 O.2       1 3FN        -0.7244 
@<TRIPOS>BOND
     1    1    3 ar   
     2    1    7 ar   
     3    1   22 1    
     4    2   12 ar   
     5    2   18 2    
     6    2   19 ar   
     7    3   13 ar   
     8    3   15 1    
     9    4   17 ar   
    10    4   20 ar   
    11    4   21 1    
    12    5    6 ar   
    13    5   10 ar   
    14    5   11 ar   
    15    6   12 ar   
    16    6   23 1    
    17    7    8 ar   
    18    7   31 1    
    19    8    9 ar   
    20    8   24 1    
    21    9   13 ar   
    22    9   25 1    
    23   10   19 ar   
    24   10   20 ar   
    25   11   17 ar   
    26   11   26 1    
    27   12   16 1    
    28   13   16 1    
    29   14   19 1    
    30   14   27 1    
    31   14   28 1    
    32   14   29 1    
    33   21   30 1    
    34   21   34 1    
    35   32   33 1    
    36   32   37 1    
    37   32   38 1    
    38   32   46 1    
    39   33   34 1    
    40   33   39 1    
    41   33   40 1    
    42   34   35 1    
    43   34   41 1    
    44   35   36 1    
    45   35   42 1    
    46   35   43 1    
    47   36   44 1    
    48   36   45 1    
    49   36   46 1    
    50   46   47 2    
    51   46   48 2    
@<TRIPOS>SUBSTRUCTURE
     1 3FN         1 GROUP             0 C     ****    0 ROOT    
     1 3FN        31 GROUP             0       ****    0 ROOT    
@<TRIPOS>MOLECULE
p38a_2k
43   46    2
SMALL
USER_CHARGES


@<TRIPOS>ATOM
      1 C24        38.2632   36.7144   17.0134 C.ar      1 3FN        -0.1150 
      2 C15        34.5448   34.9770   21.1828 C.ar      1 3FN         0.5567 
      3 C25        37.5969   36.1886   18.1373 C.ar      1 3FN         0.2200 
      4 C8         34.0445   38.9756   23.7378 C.ar      1 3FN         0.9663 
      5 C10        34.8025   37.8108   21.4407 C.ar      1 3FN        -0.4920 
      6 C17        35.2536   37.1252   20.2344 C.ar      1 3FN        -0.1150 
      7 C23        37.6232   36.7427   15.7594 C.ar      1 3FN         0.2200 
      8 C22        36.3272   36.2163   15.6228 C.ar      1 3FN        -0.1150 
      9 C21        35.6719   35.6684   16.7395 C.ar      1 3FN        -0.1150 
     10 C9         34.3067   37.0366   22.5109 C.ar      1 3FN         0.7490 
     11 C11        34.8522   39.2088   21.6169 C.ar      1 3FN         0.6530 
     12 C16        35.1646   35.7815   20.1251 C.ar      1 3FN         0.0283 
     13 C20        36.2931   35.6640   18.0028 C.ar      1 3FN         0.0850 
     14 H14        33.8130   35.0795   23.0906 H         1 3FN        -0.1100 
     15 F15        38.2058   36.1970   19.3473 F         1 3FN        -0.2200 
     16 O26        35.6498   35.0616   19.0536 O.3       1 3FN        -0.1700 
     17 N7         34.4789   39.7925   22.7772 N.ar      1 3FN        -0.8390 
     18 O19        34.3290   33.7761   21.0235 O.2       1 3FN        -0.5000 
     19 N14        34.2121   35.6181   22.3415 N.pl3     1 3FN        -0.1550 
     20 N12        33.9306   37.6499   23.6560 N.ar      1 3FN        -0.8390 
     21 N13        33.6717   39.5652   24.9268 N.pl3     1 3FN        -0.7043 
     22 H24        39.2590   37.1169   17.1189 H         1 3FN         0.1150 
     23 H17        35.7053   37.7326   19.4650 H         1 3FN         0.1150 
     24 H24        35.8420   36.2284   14.6576 H         1 3FN         0.1150 
     25 H25        34.6846   35.2439   16.6308 H         1 3FN         0.1150 
     26 H11        35.2195   39.8602   20.8376 H         1 3FN         0.0110 
     27 HN1        33.7701   40.5677   24.9292 H         1 3FN         0.3800 
     28 F28        38.2455   37.2821   14.6863 F         1 3FN         0.0000 
     29 C29        31.0952   38.3551   27.4684 C.3       1 3FN         0.0000 
     30 C30        31.6235   38.9529   26.1544 C.3       1 3FN         0.0000 
     31 C31        33.1562   38.9294   26.1332 C.3       1 3FN         0.0000 
     32 C32        33.6809   39.6144   27.4031 C.3       1 3FN         0.0000 
     33 C33        33.0541   38.9788   28.6539 C.3       1 3FN         0.0000 
     34 O34        31.6350   39.0631   28.5784 O.3       1 3FN         0.0000 
     35 H35        31.3462   37.2957   27.5420 H         1 3FN         0.0000 
     36 H36        30.0078   38.4258   27.5011 H         1 3FN         0.0000 
     37 H37        31.2581   39.9758   26.0545 H         1 3FN         0.0000 
     38 H38        31.2252   38.3926   25.3075 H         1 3FN         0.0000 
     39 H39        33.4881   37.8900   26.1492 H         1 3FN         0.0000 
     40 H40        34.7676   39.5365   27.4548 H         1 3FN         0.0000 
     41 H41        33.4411   40.6784   27.3878 H         1 3FN         0.0000 
     42 H42        33.3635   37.9376   28.7593 H         1 3FN         0.0000 
     43 H43        33.3908   39.5020   29.5492 H         1 3FN         0.0000 
@<TRIPOS>BOND
     1    1    3 ar   
     2    1    7 ar   
     3    1   22 1    
     4    2   12 ar   
     5    2   18 2    
     6    2   19 ar   
     7    3   13 ar   
     8    3   15 1    
     9    4   17 ar   
    10    4   20 ar   
    11    4   21 1    
    12    5    6 ar   
    13    5   10 ar   
    14    5   11 ar   
    15    6   12 ar   
    16    6   23 1    
    17    7    8 ar   
    18    7   28 1    
    19    8    9 ar   
    20    8   24 1    
    21    9   13 ar   
    22    9   25 1    
    23   10   19 ar   
    24   10   20 ar   
    25   11   17 ar   
    26   11   26 1    
    27   12   16 1    
    28   13   16 1    
    29   14   19 1    
    30   21   27 1    
    31   21   31 1    
    32   29   30 1    
    33   29   34 1    
    34   29   35 1    
    35   29   36 1    
    36   30   31 1    
    37   30   37 1    
    38   30   38 1    
    39   31   32 1    
    40   31   39 1    
    41   32   33 1    
    42   32   40 1    
    43   32   41 1    
    44   33   34 1    
    45   33   42 1    
    46   33   43 1    
@<TRIPOS>SUBSTRUCTURE
     1 3FN         1 GROUP             0 C     ****    0 ROOT    
     1 3FN        28 GROUP             0       ****    0 ROOT    
@<TRIPOS>MOLECULE
p38a_3flq
47   49    1
SMALL
USER_CHARGES


@<TRIPOS>ATOM
      1 C16        34.0445   38.9756   23.7378 C.ar      1 891         0.9663 
      2 C13        34.8025   37.8108   21.4407 C.ar      1 891        -0.4920 
      3 C11        35.2536   37.1252   20.2344 C.ar      1 891        -0.1150 
      4 C12        34.3067   37.0366   22.5109 C.ar      1 891         0.7490 
      5 C10        35.1646   35.7815   20.1251 C.ar      1 891         0.0283 
      6 C1         33.4629   38.6996   26.0838 C.3       1 891         0.2761 
      7 C2         33.7900   39.4541   27.3383 C.3       1 891        -0.1800 
      8 C5         30.5378   38.0705   28.4753 C.3       1 891        -0.4765 
      9 N8         34.2121   35.6181   22.3415 N.pl3     1 891        -0.1550 
     10 C3         32.0301   38.2575   26.1255 C.3       1 891        -0.4339 
     11 F29        38.2455   37.2821   14.6863 F         1 891        -0.2200 
     12 C25        37.6232   36.7427   15.7594 C.ar      1 891         0.2200 
     13 C24        36.3272   36.2163   15.6228 C.ar      1 891        -0.1150 
     14 C23        35.6719   35.6684   16.7395 C.ar      1 891        -0.1150 
     15 C26        38.2632   36.7144   17.0134 C.ar      1 891        -0.1150 
     16 C27        37.5969   36.1886   18.1373 C.ar      1 891         0.2200 
     17 F28        38.2175   36.1771   19.3413 F         1 891        -0.2200 
     18 C21        36.2931   35.6640   18.0028 C.ar      1 891         0.0850 
     19 O20        35.6498   35.0616   19.0536 O.3       1 891        -0.1700 
     20 C9         34.5448   34.9770   21.1828 C.ar      1 891         0.5567 
     21 O18        34.3290   33.7761   21.0235 O.2       1 891        -0.5000 
     22 C14        34.8522   39.2088   21.6169 C.ar      1 891         0.6530 
     23 N15        34.4789   39.7925   22.7772 N.ar      1 891        -0.8390 
     24 N17        33.9306   37.6499   23.6560 N.ar      1 891        -0.8390 
     25 C22        33.6690   34.8315   23.4618 C.3       1 891        -0.1100 
     26 N19        33.6717   39.5652   24.9268 N.pl3     1 891        -0.7043 
     27 S4         31.7755   37.2021   27.5361 S.o2      1 891         0.9408 
     28 O6         31.1731   35.9543   27.0542 O.2       1 891        -0.5300 
     29 O7         33.0138   37.2059   28.3227 O.2       1 891        -0.5300 
     30 H11        35.7050   37.7328   19.4646 H         1 891         0.1150 
     31 H1         34.1104   37.8263   26.0058 H         1 891         0.0600 
     32 H21        33.6341   38.8078   28.2021 H         1 891         0.0600 
     33 H22        34.8311   39.7753   27.3081 H         1 891         0.0600 
     34 H23        33.1424   40.3274   27.4164 H         1 891         0.0600 
     35 H51        30.3018   37.5043   29.3763 H         1 891         0.1787 
     36 H52        30.9162   39.0542   28.7531 H         1 891         0.1787 
     37 H53        29.6374   38.1847   27.8717 H         1 891         0.1787 
     38 H31        31.3825   39.1308   26.2035 H         1 891         0.1787 
     39 H32        31.7924   37.7092   25.2139 H         1 891         0.1787 
     40 H24        35.8421   36.2282   14.6575 H         1 891         0.1150 
     41 H23        34.6846   35.2437   16.6306 H         1 891         0.1150 
     42 H26        39.2609   37.1126   17.1175 H         1 891         0.1150 
     43 H14        35.2197   39.8603   20.8377 H         1 891         0.0110 
     44 H221       34.0543   35.1876   24.4176 H         1 891         0.0600 
     45 H222       32.5822   34.9190   23.4834 H         1 891         0.0600 
     46 H223       33.9197   33.7705   23.4230 H         1 891         0.0600 
     47 HN1        33.9288   40.5273   25.0718 H         1 891         0.3800 
@<TRIPOS>BOND
     1    1   23 ar   
     2    1   24 ar   
     3    1   26 1    
     4    2    3 ar   
     5    2    4 ar   
     6    2   22 ar   
     7    3    5 ar   
     8    3   30 1    
     9    4    9 ar   
    10    4   24 ar   
    11    5   19 1    
    12    5   20 ar   
    13    6    7 1    
    14    6   10 1    
    15    6   26 1    
    16    6   31 1    
    17    7   32 1    
    18    7   33 1    
    19    7   34 1    
    20    8   27 1    
    21    8   35 1    
    22    8   36 1    
    23    8   37 1    
    24    9   20 ar   
    25    9   25 1    
    26   10   27 1    
    27   10   38 1    
    28   10   39 1    
    29   11   12 1    
    30   12   13 ar   
    31   12   15 ar   
    32   13   14 ar   
    33   13   40 1    
    34   14   18 ar   
    35   14   41 1    
    36   15   16 ar   
    37   15   42 1    
    38   16   17 1    
    39   16   18 ar   
    40   18   19 1    
    41   20   21 2    
    42   22   23 ar   
    43   22   43 1    
    44   25   44 1    
    45   25   45 1    
    46   25   46 1    
    47   26   47 1    
    48   27   28 2    
    49   27   29 2    
@<TRIPOS>SUBSTRUCTURE
     1 891         1 GROUP             0 A     ****    0 ROOT    
@<TRIPOS>MOLECULE
p38a_2p
58   61    2
SMALL
USER_CHARGES


@<TRIPOS>ATOM
      1 C24        38.2632   36.7144   17.0134 C.ar      1 3FN        -0.1150 
      2 C15        34.5448   34.9770   21.1828 C.ar      1 3FN         0.5567 
      3 C25        37.5969   36.1886   18.1373 C.ar      1 3FN         0.2200 
      4 C8         34.0445   38.9756   23.7378 C.ar      1 3FN         0.9663 
      5 C10        34.8025   37.8108   21.4407 C.ar      1 3FN        -0.4920 
      6 C17        35.2536   37.1252   20.2344 C.ar      1 3FN        -0.1150 
      7 C23        37.6232   36.7427   15.7594 C.ar      1 3FN         0.2200 
      8 C22        36.3272   36.2163   15.6228 C.ar      1 3FN        -0.1150 
      9 C21        35.6719   35.6684   16.7395 C.ar      1 3FN        -0.1150 
     10 C9         34.3067   37.0366   22.5109 C.ar      1 3FN         0.7490 
     11 C11        34.8522   39.2088   21.6169 C.ar      1 3FN         0.6530 
     12 C16        35.1646   35.7815   20.1251 C.ar      1 3FN         0.0283 
     13 C20        36.2931   35.6640   18.0028 C.ar      1 3FN         0.0850 
     14 F14        38.2058   36.1970   19.3473 F         1 3FN        -0.2200 
     15 O26        35.6498   35.0616   19.0536 O.3       1 3FN        -0.1700 
     16 N7         34.4789   39.7925   22.7772 N.ar      1 3FN        -0.8390 
     17 O19        34.3290   33.7761   21.0235 O.2       1 3FN        -0.5000 
     18 N14        34.2121   35.6181   22.3415 N.pl3     1 3FN        -0.1550 
     19 N12        33.9306   37.6499   23.6560 N.ar      1 3FN        -0.8390 
     20 N13        33.6717   39.5652   24.9268 N.pl3     1 3FN        -0.7043 
     21 H24        39.2591   37.1167   17.1187 H         1 3FN         0.1150 
     22 H17        35.7054   37.7328   19.4650 H         1 3FN         0.1150 
     23 H23        35.8420   36.2282   14.6576 H         1 3FN         0.1150 
     24 H24        34.6848   35.2436   16.6304 H         1 3FN         0.1150 
     25 H11        35.2203   39.8603   20.8379 H         1 3FN         0.0110 
     26 HN1        33.7698   40.5676   24.9297 H         1 3FN         0.3800 
     27 F27        38.2455   37.2821   14.6863 F         1 3FN         0.0000 
     28 C28        31.0952   38.3551   27.4684 C.3       1 3FN         0.0000 
     29 C29        31.6235   38.9529   26.1544 C.3       1 3FN         0.0000 
     30 C30        33.1562   38.9294   26.1332 C.3       1 3FN         0.0000 
     31 C31        33.6809   39.6144   27.4031 C.3       1 3FN         0.0000 
     32 C32        33.0541   38.9788   28.6539 C.3       1 3FN         0.0000 
     33 O33        31.6350   39.0631   28.5784 O.3       1 3FN         0.0000 
     34 H34        31.3463   37.2957   27.5416 H         1 3FN         0.0000 
     35 H35        30.0078   38.4257   27.5010 H         1 3FN         0.0000 
     36 H36        31.2579   39.9756   26.0539 H         1 3FN         0.0000 
     37 H37        31.2258   38.3917   25.3078 H         1 3FN         0.0000 
     38 H38        33.4880   37.8899   26.1488 H         1 3FN         0.0000 
     39 H39        34.7675   39.5359   27.4548 H         1 3FN         0.0000 
     40 H40        33.4414   40.6785   27.3878 H         1 3FN         0.0000 
     41 H41        33.3636   37.9376   28.7590 H         1 3FN         0.0000 
     42 H42        33.3909   39.5019   29.5492 H         1 3FN         0.0000 
     43 C43        33.6690   34.8315   23.4618 C.3       1 3FN         0.0000 
     44 H44        33.9150   33.7698   23.4167 H         1 3FN         0.0000 
     45 H45        34.0576   35.1909   24.4151 H         1 3FN         0.0000 
     46 C46        32.1750   34.9620   23.4939 C.3       1 3FN         0.0000 
     47 H47        31.9045   36.0099   23.6236 H         1 3FN         0.0000 
     48 H48        31.7578   34.5923   22.5572 H         1 3FN         0.0000 
     49 C49        31.6274   34.1591   24.6365 C.3       1 3FN         0.0000 
     50 H50        32.0446   34.5288   25.5732 H         1 3FN         0.0000 
     51 H51        31.8979   33.1112   24.5068 H         1 3FN         0.0000 
     52 S52        29.8545   34.3139   24.6745 S.o2      1 3FN         1.2618 
     53 O53        29.4482   35.0605   23.4789 O.2       1 3FN        -0.7248 
     54 O54        29.4759   34.7529   26.0221 O.2       1 3FN        -0.7244 
     55 C55        29.2957   32.6354   24.4776 C.3       1 3FN         0.0000 
     56 H56        28.2059   32.6119   24.4866 H         1 3FN         0.0000 
     57 H57        29.6598   32.2401   23.5293 H         1 3FN         0.0000 
     58 H58        29.6790   32.0264   25.2963 H         1 3FN         0.0000 
@<TRIPOS>BOND
     1    1    3 ar   
     2    1    7 ar   
     3    1   21 1    
     4    2   12 ar   
     5    2   17 2    
     6    2   18 ar   
     7    3   13 ar   
     8    3   14 1    
     9    4   16 ar   
    10    4   19 ar   
    11    4   20 1    
    12    5    6 ar   
    13    5   10 ar   
    14    5   11 ar   
    15    6   12 ar   
    16    6   22 1    
    17    7    8 ar   
    18    7   27 1    
    19    8    9 ar   
    20    8   23 1    
    21    9   13 ar   
    22    9   24 1    
    23   10   18 ar   
    24   10   19 ar   
    25   11   16 ar   
    26   11   25 1    
    27   12   15 1    
    28   13   15 1    
    29   18   43 1    
    30   20   26 1    
    31   20   30 1    
    32   28   29 1    
    33   28   33 1    
    34   28   34 1    
    35   28   35 1    
    36   29   30 1    
    37   29   36 1    
    38   29   37 1    
    39   30   31 1    
    40   30   38 1    
    41   31   32 1    
    42   31   39 1    
    43   31   40 1    
    44   32   33 1    
    45   32   41 1    
    46   32   42 1    
    47   43   44 1    
    48   43   45 1    
    49   43   46 1    
    50   46   47 1    
    51   46   48 1    
    52   46   49 1    
    53   49   50 1    
    54   49   51 1    
    55   49   52 1    
    56   52   53 2    
    57   52   54 2    
    58   52   55 1    
    59   55   56 1    
    60   55   57 1    
    61   55   58 1    
@<TRIPOS>SUBSTRUCTURE
     1 3FN         1 GROUP             0 C     ****    0 ROOT    
     1 3FN        27 GROUP             0       ****    0 ROOT    
@<TRIPOS>MOLECULE
p38a_3fmk
46   49    1
SMALL
USER_CHARGES


@<TRIPOS>ATOM
      1 C21        37.5969   36.1886   18.1373 C.ar      1 FMK         0.2200 
      2 C20        38.2632   36.7144   17.0134 C.ar      1 FMK        -0.1150 
      3 C24        33.6690   34.8315   23.4618 C.3       1 FMK        -0.1100 
      4 C18        36.3272   36.2163   15.6228 C.ar      1 FMK        -0.1150 
      5 C6         34.8522   39.2088   21.6169 C.ar      1 FMK         0.6530 
      6 C2         33.0519   38.9415   26.0884 C.3       1 FMK         0.1400 
      7 C3         31.5169   39.0464   26.0116 C.3       1 FMK         0.0025 
      8 C4         34.0445   38.9756   23.7378 C.ar      1 FMK         0.9663 
      9 C11        34.5448   34.9770   21.1828 C.ar      1 FMK         0.5567 
     10 C12        35.1646   35.7815   20.1251 C.ar      1 FMK         0.0283 
     11 C13        35.2536   37.1252   20.2344 C.ar      1 FMK        -0.1150 
     12 C16        36.2931   35.6640   18.0028 C.ar      1 FMK         0.0850 
     13 C17        35.6719   35.6684   16.7395 C.ar      1 FMK        -0.1150 
     14 C8         34.8025   37.8108   21.4407 C.ar      1 FMK        -0.4920 
     15 C9         34.3067   37.0366   22.5109 C.ar      1 FMK         0.7490 
     16 N1         33.6717   39.5652   24.9268 N.pl3     1 FMK        -0.7043 
     17 C19        37.6232   36.7427   15.7594 C.ar      1 FMK         0.2200 
     18 F23        38.2455   37.2821   14.6863 F         1 FMK        -0.2200 
     19 F22        38.2058   36.1970   19.3473 F         1 FMK        -0.2200 
     20 O15        35.6498   35.0616   19.0536 O.3       1 FMK        -0.1700 
     21 O14        34.3290   33.7761   21.0235 O.2       1 FMK        -0.5000 
     22 N10        34.2121   35.6181   22.3415 N.pl3     1 FMK        -0.1550 
     23 N5         33.9306   37.6499   23.6560 N.ar      1 FMK        -0.8390 
     24 N7         34.4789   39.7925   22.7772 N.ar      1 FMK        -0.8390 
     25 C30        33.5899   39.5701   27.3795 C.3       1 FMK        -0.1800 
     26 N25        30.9543   38.2757   24.9153 N.pl3     1 FMK         0.4691 
     27 N29        30.4465   38.8422   23.8039 N.2       1 FMK        -0.5708 
     28 C28        30.1129   37.7506   23.1339 C.ar      1 FMK         0.5442 
     29 N27        30.3972   36.5870   23.7828 N.2       1 FMK        -0.3710 
     30 N26        30.9159   36.9279   24.9164 N.2       1 FMK        -0.2368 
     31 H20        39.2580   37.1176   17.1188 H         1 FMK         0.1150 
     32 H241       34.0543   35.1876   24.4176 H         1 FMK         0.0600 
     33 H242       32.5822   34.9190   23.4834 H         1 FMK         0.0600 
     34 H243       33.9197   33.7705   23.4230 H         1 FMK         0.0600 
     35 H18        35.8365   36.2331   14.6625 H         1 FMK         0.1150 
     36 H6         35.2172   39.8567   20.8353 H         1 FMK         0.0110 
     37 H2         33.3284   37.8872   26.1125 H         1 FMK         0.0600 
     38 H31        31.0712   38.6792   26.9357 H         1 FMK         0.0600 
     39 H32        31.2171   40.0882   25.9014 H         1 FMK         0.0600 
     40 H13        35.6990   37.7322   19.4630 H         1 FMK         0.1150 
     41 H17        34.6877   35.2471   16.6269 H         1 FMK         0.1150 
     42 HN1        33.7545   40.5729   24.9586 H         1 FMK         0.3800 
     43 H301       34.6780   39.5146   27.4182 H         1 FMK         0.0600 
     44 H302       33.3018   40.6180   27.4660 H         1 FMK         0.0600 
     45 H303       33.2028   39.0493   28.2559 H         1 FMK         0.0600 
     46 H28        29.6427   37.7853   22.1646 H         1 FMK         0.0428 
@<TRIPOS>BOND
     1    1    2 ar   
     2    1   12 ar   
     3    1   19 1    
     4    2   17 ar   
     5    2   31 1    
     6    3   22 1    
     7    3   32 1    
     8    3   33 1    
     9    3   34 1    
    10    4   13 ar   
    11    4   17 ar   
    12    4   35 1    
    13    5   14 ar   
    14    5   24 ar   
    15    5   36 1    
    16    6    7 1    
    17    6   16 1    
    18    6   25 1    
    19    6   37 1    
    20    7   26 1    
    21    7   38 1    
    22    7   39 1    
    23    8   16 1    
    24    8   23 ar   
    25    8   24 ar   
    26    9   10 ar   
    27    9   21 2    
    28    9   22 ar   
    29   10   11 ar   
    30   10   20 1    
    31   11   14 ar   
    32   11   40 1    
    33   12   13 ar   
    34   12   20 1    
    35   13   41 1    
    36   14   15 ar   
    37   15   22 ar   
    38   15   23 ar   
    39   16   42 1    
    40   17   18 1    
    41   25   43 1    
    42   25   44 1    
    43   25   45 1    
    44   26   27 ar   
    45   26   30 ar   
    46   27   28 ar   
    47   28   29 ar   
    48   28   46 1    
    49   29   30 ar   
@<TRIPOS>SUBSTRUCTURE
     1 FMK         1 GROUP             0 A     ****    0 ROOT    
@<TRIPOS>MOLECULE
p38a_2j
48   51    2
SMALL
USER_CHARGES


@<TRIPOS>ATOM
      1 C1         31.6235   38.9529   26.1544 C.3       1 3FN        -0.1200 
      2 C2         31.0952   38.3551   27.4684 C.3       1 3FN         0.1400 
      3 C4         33.0541   38.9788   28.6539 C.3       1 3FN         0.1400 
      4 C5         33.6809   39.6144   27.4031 C.3       1 3FN        -0.1200 
      5 C24        38.3660   36.7077   16.8209 C.ar      1 3FN        -0.1150 
      6 O3         31.6350   39.0631   28.5784 O.3       1 3FN        -0.4000 
      7 C15        34.5448   34.9770   21.1828 C.ar      1 3FN         0.5567 
      8 C25        37.6997   36.1819   17.9448 C.ar      1 3FN         0.2200 
      9 C8         34.0445   38.9756   23.7378 C.ar      1 3FN         0.9663 
     10 C6         33.1562   38.9294   26.1332 C.3       1 3FN         0.1400 
     11 C10        34.8025   37.8108   21.4407 C.ar      1 3FN        -0.4920 
     12 C17        35.2536   37.1252   20.2344 C.ar      1 3FN        -0.1150 
     13 C22        36.4300   36.2096   15.4303 C.ar      1 3FN        -0.1150 
     14 C21        35.7747   35.6617   16.5471 C.ar      1 3FN        -0.1150 
     15 C9         34.3067   37.0366   22.5109 C.ar      1 3FN         0.7490 
     16 C11        34.8522   39.2088   21.6169 C.ar      1 3FN         0.6530 
     17 C16        35.1646   35.7815   20.1251 C.ar      1 3FN         0.0283 
     18 C20        36.3960   35.6573   17.8103 C.ar      1 3FN         0.0850 
     19 C18        33.6690   34.8315   23.4618 C.3       1 3FN        -0.1100 
     20 F20        38.2989   36.1901   19.1355 F         1 3FN        -0.2200 
     21 C21        35.6924   34.9985   18.9596 C.3       1 3FN        -0.1700 
     22 N7         34.4789   39.7925   22.7772 N.ar      1 3FN        -0.8390 
     23 O19        34.3290   33.7761   21.0235 O.2       1 3FN        -0.5000 
     24 N14        34.2121   35.6181   22.3415 N.pl3     1 3FN        -0.1550 
     25 N12        33.9306   37.6499   23.6560 N.ar      1 3FN        -0.8390 
     26 N13        33.6717   39.5652   24.9268 N.pl3     1 3FN        -0.7043 
     27 H11        31.2200   38.3997   25.3053 H         1 3FN         0.0600 
     28 H12        31.2771   39.9808   26.0536 H         1 3FN         0.0600 
     29 H21        30.0102   38.4341   27.5066 H         1 3FN         0.0300 
     30 H22        31.3432   37.2955   27.5444 H         1 3FN         0.0300 
     31 H41        33.3652   37.9383   28.7608 H         1 3FN         0.0300 
     32 H42        33.3890   39.5054   29.5480 H         1 3FN         0.0300 
     33 H51        33.4274   40.6742   27.3922 H         1 3FN         0.0600 
     34 H52        34.7681   39.5450   27.4512 H         1 3FN         0.0600 
     35 H24        39.3613   37.1091   16.9241 H         1 3FN         0.1150 
     36 H6         33.4882   37.8909   26.1541 H         1 3FN         0.0600 
     37 H17        35.7026   37.7356   19.4667 H         1 3FN         0.1150 
     38 H38        35.9403   36.2182   14.4678 H         1 3FN         0.1150 
     39 H39        34.7945   35.2237   16.4304 H         1 3FN         0.1150 
     40 H11        35.2183   39.8565   20.8356 H         1 3FN         0.0110 
     41 H181       34.0543   35.1876   24.4176 H         1 3FN         0.0600 
     42 H182       32.5822   34.9190   23.4834 H         1 3FN         0.0600 
     43 H183       33.9197   33.7705   23.4230 H         1 3FN         0.0600 
     44 HN1        33.7904   40.5685   24.9712 H         1 3FN         0.3800 
     45 H45        36.4277   34.2745   19.3107 H         1 3FN         0.0000 
     46 H46        34.8709   34.4738   18.4718 H         1 3FN         0.0000 
     47 C47        37.7595   36.7642   15.5101 C.ar      1 3FN         0.0000 
     48 F48        38.3816   37.2891   14.4545 F         1 3FN         0.0000 
@<TRIPOS>BOND
     1    1    2 1    
     2    1   10 1    
     3    1   27 1    
     4    1   28 1    
     5    2    6 1    
     6    2   29 1    
     7    2   30 1    
     8    3    4 1    
     9    3    6 1    
    10    3   31 1    
    11    3   32 1    
    12    4   10 1    
    13    4   33 1    
    14    4   34 1    
    15    5    8 ar   
    16    5   35 1    
    17    5   47 ar   
    18    7   17 ar   
    19    7   23 2    
    20    7   24 ar   
    21    8   18 ar   
    22    8   20 1    
    23    9   22 ar   
    24    9   25 ar   
    25    9   26 1    
    26   10   26 1    
    27   10   36 1    
    28   11   12 ar   
    29   11   15 ar   
    30   11   16 ar   
    31   12   17 ar   
    32   12   37 1    
    33   13   14 ar   
    34   13   38 1    
    35   13   47 ar   
    36   14   18 ar   
    37   14   39 1    
    38   15   24 ar   
    39   15   25 ar   
    40   16   22 ar   
    41   16   40 1    
    42   17   21 1    
    43   18   21 1    
    44   19   24 1    
    45   19   41 1    
    46   19   42 1    
    47   19   43 1    
    48   21   45 1    
    49   21   46 1    
    50   26   44 1    
    51   47   48 1    
@<TRIPOS>SUBSTRUCTURE
     1 3FN         1 GROUP             0 C     ****    0 ROOT    
     1 3FN        47 GROUP             0       ****    0 ROOT    
@<TRIPOS>MOLECULE
p38a_2g
46   49    2
SMALL
USER_CHARGES


@<TRIPOS>ATOM
      1 C1         31.6235   38.9529   26.1544 C.3       1 3FN        -0.1200 
      2 C2         31.0952   38.3551   27.4684 C.3       1 3FN         0.1400 
      3 C4         33.0541   38.9788   28.6539 C.3       1 3FN         0.1400 
      4 C5         33.6809   39.6144   27.4031 C.3       1 3FN        -0.1200 
      5 C24        38.2632   36.7144   17.0134 C.ar      1 3FN        -0.1150 
      6 O3         31.6350   39.0631   28.5784 O.3       1 3FN        -0.4000 
      7 C15        34.5448   34.9770   21.1828 C.ar      1 3FN         0.5567 
      8 C25        37.5969   36.1886   18.1373 C.ar      1 3FN         0.2200 
      9 C8         34.0445   38.9756   23.7378 C.ar      1 3FN         0.9663 
     10 C6         33.1562   38.9294   26.1332 C.3       1 3FN         0.1400 
     11 C10        34.8025   37.8108   21.4407 C.ar      1 3FN        -0.4920 
     12 C17        35.2536   37.1252   20.2344 C.ar      1 3FN        -0.1150 
     13 C23        37.6232   36.7427   15.7594 C.ar      1 3FN         0.2200 
     14 C22        36.3272   36.2163   15.6228 C.ar      1 3FN        -0.1150 
     15 C21        35.6719   35.6684   16.7395 C.ar      1 3FN        -0.1150 
     16 C9         34.3067   37.0366   22.5109 C.ar      1 3FN         0.7490 
     17 C11        34.8522   39.2088   21.6169 C.ar      1 3FN         0.6530 
     18 C16        35.1646   35.7815   20.1251 C.ar      1 3FN         0.0283 
     19 C20        36.2931   35.6640   18.0028 C.ar      1 3FN         0.0850 
     20 C18        33.6690   34.8315   23.4618 C.3       1 3FN        -0.1100 
     21 F21        38.2058   36.1970   19.3473 F         1 3FN        -0.2200 
     22 O26        35.6498   35.0616   19.0536 O.3       1 3FN        -0.1700 
     23 N7         34.4789   39.7925   22.7772 N.ar      1 3FN        -0.8390 
     24 O19        34.3290   33.7761   21.0235 O.2       1 3FN        -0.5000 
     25 N14        34.2121   35.6181   22.3415 N.pl3     1 3FN        -0.1550 
     26 N12        33.9306   37.6499   23.6560 N.ar      1 3FN        -0.8390 
     27 N13        33.6717   39.5652   24.9268 N.pl3     1 3FN        -0.7043 
     28 H11        31.2200   38.3997   25.3053 H         1 3FN         0.0600 
     29 H12        31.2771   39.9808   26.0536 H         1 3FN         0.0600 
     30 H21        30.0102   38.4341   27.5066 H         1 3FN         0.0300 
     31 H22        31.3432   37.2955   27.5444 H         1 3FN         0.0300 
     32 H41        33.3652   37.9383   28.7608 H         1 3FN         0.0300 
     33 H42        33.3890   39.5054   29.5480 H         1 3FN         0.0300 
     34 H51        33.4274   40.6742   27.3922 H         1 3FN         0.0600 
     35 H52        34.7681   39.5450   27.4512 H         1 3FN         0.0600 
     36 H24        39.2585   37.1158   17.1165 H         1 3FN         0.1150 
     37 H6         33.4882   37.8909   26.1541 H         1 3FN         0.0600 
     38 H17        35.7026   37.7356   19.4667 H         1 3FN         0.1150 
     39 H39        35.8375   36.2249   14.6602 H         1 3FN         0.1150 
     40 H40        34.6916   35.2304   16.6228 H         1 3FN         0.1150 
     41 H11        35.2183   39.8565   20.8356 H         1 3FN         0.0110 
     42 H181       34.0543   35.1876   24.4176 H         1 3FN         0.0600 
     43 H182       32.5822   34.9190   23.4834 H         1 3FN         0.0600 
     44 H183       33.9197   33.7705   23.4230 H         1 3FN         0.0600 
     45 HN1        33.7904   40.5685   24.9712 H         1 3FN         0.3800 
     46 H46        38.1201   37.1734   14.9026 H         1 3FN         0.0000 
@<TRIPOS>BOND
     1    1    2 1    
     2    1   10 1    
     3    1   28 1    
     4    1   29 1    
     5    2    6 1    
     6    2   30 1    
     7    2   31 1    
     8    3    4 1    
     9    3    6 1    
    10    3   32 1    
    11    3   33 1    
    12    4   10 1    
    13    4   34 1    
    14    4   35 1    
    15    5    8 ar   
    16    5   13 ar   
    17    5   36 1    
    18    7   18 ar   
    19    7   24 2    
    20    7   25 ar   
    21    8   19 ar   
    22    8   21 1    
    23    9   23 ar   
    24    9   26 ar   
    25    9   27 1    
    26   10   27 1    
    27   10   37 1    
    28   11   12 ar   
    29   11   16 ar   
    30   11   17 ar   
    31   12   18 ar   
    32   12   38 1    
    33   13   14 ar   
    34   13   46 1    
    35   14   15 ar   
    36   14   39 1    
    37   15   19 ar   
    38   15   40 1    
    39   16   25 ar   
    40   16   26 ar   
    41   17   23 ar   
    42   17   41 1    
    43   18   22 1    
    44   19   22 1    
    45   20   25 1    
    46   20   42 1    
    47   20   43 1    
    48   20   44 1    
    49   27   45 1    
@<TRIPOS>SUBSTRUCTURE
     1 3FN         1 GROUP             0 C     ****    0 ROOT    
     1 3FN        46 GROUP             0       ****    0 ROOT    
@<TRIPOS>MOLECULE
p38a_2c
45   48    2
SMALL
USER_CHARGES


@<TRIPOS>ATOM
      1 C1         31.6235   38.9529   26.1544 C.3       1 3FN        -0.1200 
      2 C2         31.0952   38.3551   27.4684 C.3       1 3FN         0.1400 
      3 C4         33.0541   38.9788   28.6539 C.3       1 3FN         0.1400 
      4 C5         33.6809   39.6144   27.4031 C.3       1 3FN        -0.1200 
      5 O3         31.6350   39.0631   28.5784 O.3       1 3FN        -0.4000 
      6 C15        34.5448   34.9770   21.1828 C.ar      1 3FN         0.5567 
      7 C8         34.0445   38.9756   23.7378 C.ar      1 3FN         0.9663 
      8 C6         33.1562   38.9294   26.1332 C.3       1 3FN         0.1400 
      9 C10        34.8025   37.8108   21.4407 C.ar      1 3FN        -0.4920 
     10 C17        35.2536   37.1252   20.2344 C.ar      1 3FN        -0.1150 
     11 C9         34.3067   37.0366   22.5109 C.ar      1 3FN         0.7490 
     12 C11        34.8522   39.2088   21.6169 C.ar      1 3FN         0.6530 
     13 C18        33.6690   34.8315   23.4618 C.3       1 3FN        -0.1100 
     14 N7         34.4789   39.7925   22.7772 N.ar      1 3FN        -0.8390 
     15 O19        34.3290   33.7761   21.0235 O.2       1 3FN        -0.5000 
     16 N14        34.2121   35.6181   22.3415 N.pl3     1 3FN        -0.1550 
     17 N12        33.9306   37.6499   23.6560 N.ar      1 3FN        -0.8390 
     18 N13        33.6717   39.5652   24.9268 N.pl3     1 3FN        -0.7043 
     19 H11        31.2200   38.3997   25.3053 H         1 3FN         0.0600 
     20 H12        31.2771   39.9808   26.0536 H         1 3FN         0.0600 
     21 H21        30.0102   38.4341   27.5066 H         1 3FN         0.0300 
     22 H22        31.3432   37.2955   27.5444 H         1 3FN         0.0300 
     23 H41        33.3652   37.9383   28.7608 H         1 3FN         0.0300 
     24 H42        33.3890   39.5054   29.5480 H         1 3FN         0.0300 
     25 H51        33.4274   40.6742   27.3922 H         1 3FN         0.0600 
     26 H52        34.7681   39.5450   27.4512 H         1 3FN         0.0600 
     27 H6         33.4882   37.8909   26.1541 H         1 3FN         0.0600 
     28 H17        35.7057   37.7351   19.4681 H         1 3FN         0.1150 
     29 H11        35.2183   39.8565   20.8356 H         1 3FN         0.0110 
     30 H181       34.0543   35.1876   24.4176 H         1 3FN         0.0600 
     31 H182       32.5822   34.9190   23.4834 H         1 3FN         0.0600 
     32 H183       33.9197   33.7705   23.4230 H         1 3FN         0.0600 
     33 HN1        33.7904   40.5685   24.9712 H         1 3FN         0.3800 
     34 C34        35.1646   35.7815   20.1251 C.ar      1 3FN         0.0000 
     35 C35        36.7679   34.0308   16.5734 C.ar      1 3FN         0.0000 
     36 C36        36.8242   35.4221   16.7577 C.ar      1 3FN         0.0000 
     37 C37        36.2971   35.9977   17.9254 C.ar      1 3FN         0.0000 
     38 C38        35.7137   35.1820   18.9087 C.ar      1 3FN         0.0000 
     39 C39        35.6573   33.7907   18.7245 C.ar      1 3FN         0.0000 
     40 C40        36.1845   33.2151   17.5567 C.ar      1 3FN         0.0000 
     41 H41        37.1820   33.5786   15.6560 H         1 3FN         0.0000 
     42 H42        37.2826   36.0629   15.9851 H         1 3FN         0.0000 
     43 Cl43       36.3665   37.7113   18.1524 Cl        1 3FN         0.0000 
     44 H44        35.1990   33.1500   19.4970 H         1 3FN         0.0000 
     45 H45        36.1402   32.1221   17.4119 H         1 3FN         0.0000 
@<TRIPOS>BOND
     1    1    2 1    
     2    1    8 1    
     3    1   19 1    
     4    1   20 1    
     5    2    5 1    
     6    2   21 1    
     7    2   22 1    
     8    3    4 1    
     9    3    5 1    
    10    3   23 1    
    11    3   24 1    
    12    4    8 1    
    13    4   25 1    
    14    4   26 1    
    15    6   15 2    
    16    6   16 ar   
    17    6   34 ar   
    18    7   14 ar   
    19    7   17 ar   
    20    7   18 1    
    21    8   18 1    
    22    8   27 1    
    23    9   10 ar   
    24    9   11 ar   
    25    9   12 ar   
    26   10   28 1    
    27   10   34 ar   
    28   11   16 ar   
    29   11   17 ar   
    30   12   14 ar   
    31   12   29 1    
    32   13   16 1    
    33   13   30 1    
    34   13   31 1    
    35   13   32 1    
    36   18   33 1    
    37   34   38 1    
    38   35   36 ar   
    39   35   40 ar   
    40   35   41 1    
    41   36   37 ar   
    42   36   42 1    
    43   37   38 ar   
    44   37   43 1    
    45   38   39 ar   
    46   39   40 ar   
    47   39   44 1    
    48   40   45 1    
@<TRIPOS>SUBSTRUCTURE
     1 3FN         1 GROUP             0 C     ****    0 ROOT    
     1 3FN        34 GROUP             0       ****    0 ROOT    
@<TRIPOS>MOLECULE
p38a_2x
43   46    2
SMALL
USER_CHARGES


@<TRIPOS>ATOM
      1 C24        38.2632   36.7144   17.0134 C.ar      1 3FN        -0.1150 
      2 C15        34.5448   34.9770   21.1828 C.ar      1 3FN         0.5567 
      3 C25        37.5969   36.1886   18.1373 C.ar      1 3FN         0.2200 
      4 C8         34.0445   38.9756   23.7378 C.ar      1 3FN         0.9663 
      5 C10        34.8025   37.8108   21.4407 C.ar      1 3FN        -0.4920 
      6 C17        35.2536   37.1252   20.2344 C.ar      1 3FN        -0.1150 
      7 C23        37.6232   36.7427   15.7594 C.ar      1 3FN         0.2200 
      8 C22        36.3272   36.2163   15.6228 C.ar      1 3FN        -0.1150 
      9 C21        35.6719   35.6684   16.7395 C.ar      1 3FN        -0.1150 
     10 C9         34.3067   37.0366   22.5109 C.ar      1 3FN         0.7490 
     11 C11        34.8522   39.2088   21.6169 C.ar      1 3FN         0.6530 
     12 C16        35.1646   35.7815   20.1251 C.ar      1 3FN         0.0283 
     13 C20        36.2931   35.6640   18.0028 C.ar      1 3FN         0.0850 
     14 C18        33.6690   34.8315   23.4618 C.3       1 3FN        -0.1100 
     15 F15        38.2058   36.1970   19.3473 F         1 3FN        -0.2200 
     16 O26        35.6498   35.0616   19.0536 O.3       1 3FN        -0.1700 
     17 N7         34.4789   39.7925   22.7772 N.ar      1 3FN        -0.8390 
     18 O19        34.3290   33.7761   21.0235 O.2       1 3FN        -0.5000 
     19 N14        34.2121   35.6181   22.3415 N.pl3     1 3FN        -0.1550 
     20 N12        33.9306   37.6499   23.6560 N.ar      1 3FN        -0.8390 
     21 N13        33.6717   39.5652   24.9268 N.pl3     1 3FN        -0.7043 
     22 H24        39.2591   37.1145   17.1178 H         1 3FN         0.1150 
     23 H17        35.6983   37.7332   19.4616 H         1 3FN         0.1150 
     24 H24        35.8414   36.2288   14.6577 H         1 3FN         0.1150 
     25 H25        34.6837   35.2450   16.6304 H         1 3FN         0.1150 
     26 H11        35.2190   39.8575   20.8337 H         1 3FN         0.0110 
     27 H181       33.9197   33.7705   23.4230 H         1 3FN         0.0600 
     28 H182       34.0543   35.1876   24.4176 H         1 3FN         0.0600 
     29 H183       32.5822   34.9190   23.4834 H         1 3FN         0.0600 
     30 HN1        33.7907   40.5646   24.9381 H         1 3FN         0.3800 
     31 F31        38.2455   37.2821   14.6863 F         1 3FN         0.0000 
     32 O32        31.2250   38.2029   27.2541 O.3       1 3FN         0.0000 
     33 C33        31.8853   39.1290   28.1162 C.3       1 3FN         0.0000 
     34 C34        32.8205   39.9315   27.2182 C.3       1 3FN         0.0000 
     35 C35        33.1562   38.9294   26.1332 C.3       1 3FN         0.0000 
     36 C36        31.8099   38.2251   25.9511 C.3       1 3FN         0.0000 
     37 H37        32.4500   38.5747   28.8677 H         1 3FN         0.0000 
     38 H38        31.1787   39.7732   28.6415 H         1 3FN         0.0000 
     39 H39        32.2714   40.7760   26.7998 H         1 3FN         0.0000 
     40 H40        33.6951   40.3177   27.7454 H         1 3FN         0.0000 
     41 H41        33.8926   38.2179   26.5083 H         1 3FN         0.0000 
     42 H42        31.9101   37.2166   25.5468 H         1 3FN         0.0000 
     43 H43        31.1579   38.7971   25.2883 H         1 3FN         0.0000 
@<TRIPOS>BOND
     1    1    3 ar   
     2    1    7 ar   
     3    1   22 1    
     4    2   12 ar   
     5    2   18 2    
     6    2   19 ar   
     7    3   13 ar   
     8    3   15 1    
     9    4   17 ar   
    10    4   20 ar   
    11    4   21 1    
    12    5    6 ar   
    13    5   10 ar   
    14    5   11 ar   
    15    6   12 ar   
    16    6   23 1    
    17    7    8 ar   
    18    7   31 1    
    19    8    9 ar   
    20    8   24 1    
    21    9   13 ar   
    22    9   25 1    
    23   10   19 ar   
    24   10   20 ar   
    25   11   17 ar   
    26   11   26 1    
    27   12   16 1    
    28   13   16 1    
    29   14   19 1    
    30   14   27 1    
    31   14   28 1    
    32   14   29 1    
    33   21   30 1    
    34   21   35 1    
    35   32   33 1    
    36   32   36 1    
    37   33   34 1    
    38   33   37 1    
    39   33   38 1    
    40   34   35 1    
    41   34   39 1    
    42   34   40 1    
    43   35   36 1    
    44   35   41 1    
    45   36   42 1    
    46   36   43 1    
@<TRIPOS>SUBSTRUCTURE
     1 3FN         1 GROUP             0 C     ****    0 ROOT    
     1 3FN        31 GROUP             0       ****    0 ROOT    
@<TRIPOS>MOLECULE
p38a_3flw
49   51    1
SMALL
USER_CHARGES


@<TRIPOS>ATOM
      1 C14        38.2632   36.7144   17.0134 C.ar      1 FLW        -0.1150 
      2 C15        37.6232   36.7427   15.7594 C.ar      1 FLW         0.2200 
      3 C20        33.7912   39.4546   27.3383 C.3       1 FLW        -0.1200 
      4 C21        33.5780   38.5652   28.5272 C.3       1 FLW         0.1450 
      5 C23        32.0319   38.2562   26.1264 C.3       1 FLW        -0.1200 
      6 C29        33.6690   34.8315   23.4618 C.3       1 FLW        -0.1100 
      7 F28        38.2058   36.1970   19.3473 F         1 FLW        -0.2200 
      8 C13        37.5969   36.1886   18.1373 C.ar      1 FLW         0.2200 
      9 F27        38.2455   37.2821   14.6863 F         1 FLW        -0.2200 
     10 C16        36.3272   36.2163   15.6228 C.ar      1 FLW        -0.1150 
     11 C17        35.6719   35.6684   16.7395 C.ar      1 FLW        -0.1150 
     12 C12        36.2931   35.6640   18.0028 C.ar      1 FLW         0.0850 
     13 O11        35.6498   35.0616   19.0536 O.3       1 FLW        -0.1700 
     14 C9         35.1646   35.7815   20.1251 C.ar      1 FLW         0.0283 
     15 C10        35.2536   37.1252   20.2344 C.ar      1 FLW        -0.1150 
     16 C5         34.8025   37.8108   21.4407 C.ar      1 FLW        -0.4920 
     17 C4         34.8522   39.2088   21.6169 C.ar      1 FLW         0.6530 
     18 N1         34.4789   39.7925   22.7772 N.ar      1 FLW        -0.8390 
     19 C8         34.5448   34.9770   21.1828 C.ar      1 FLW         0.5567 
     20 O26        34.3290   33.7761   21.0235 O.2       1 FLW        -0.5000 
     21 N7         34.2121   35.6181   22.3415 N.pl3     1 FLW        -0.1550 
     22 C6         34.3067   37.0366   22.5109 C.ar      1 FLW         0.7490 
     23 N3         33.9306   37.6499   23.6560 N.ar      1 FLW        -0.8390 
     24 C2         34.0445   38.9756   23.7378 C.ar      1 FLW         0.9663 
     25 N18        33.6717   39.5652   24.9268 N.pl3     1 FLW        -0.7043 
     26 C19        33.4642   38.6996   26.0841 C.3       1 FLW         0.1400 
     27 C24        31.1396   39.4571   26.2341 C.3       1 FLW         0.1450 
     28 O25        29.8219   39.0492   26.2730 O.3       1 FLW        -0.6830 
     29 O22        32.2603   38.1573   28.5662 O.3       1 FLW        -0.6830 
     30 H14        39.2591   37.1166   17.1184 H         1 FLW         0.1150 
     31 H201       33.1428   40.3273   27.4165 H         1 FLW         0.0600 
     32 H202       34.8320   39.7768   27.3075 H         1 FLW         0.0600 
     33 H211       34.2264   37.6925   28.4490 H         1 FLW         0.0600 
     34 H212       33.8156   39.1139   29.4386 H         1 FLW         0.0600 
     35 H231       31.7943   37.7075   25.2150 H         1 FLW         0.0600 
     36 H232       31.8770   37.6099   26.9904 H         1 FLW         0.0600 
     37 H291       34.0543   35.1876   24.4176 H         1 FLW         0.0600 
     38 H292       32.5822   34.9190   23.4834 H         1 FLW         0.0600 
     39 H293       33.9197   33.7705   23.4230 H         1 FLW         0.0600 
     40 H16        35.8422   36.2281   14.6575 H         1 FLW         0.1150 
     41 H17        34.6846   35.2438   16.6306 H         1 FLW         0.1150 
     42 H10        35.7052   37.7328   19.4648 H         1 FLW         0.1150 
     43 H4         35.2199   39.8604   20.8379 H         1 FLW         0.0110 
     44 HN1        33.9291   40.5273   25.0716 H         1 FLW         0.3800 
     45 H19        34.1126   37.8269   26.0059 H         1 FLW         0.0600 
     46 H241       31.3772   40.0058   27.1454 H         1 FLW         0.0600 
     47 H242       31.2945   40.1034   25.3701 H         1 FLW         0.0600 
     48 HO2        29.1525   39.7887   26.3449 H         1 FLW         0.4180 
     49 HO2        32.0261   37.5571   29.3310 H         1 FLW         0.4180 
@<TRIPOS>BOND
     1    1    2 ar   
     2    1    8 ar   
     3    1   30 1    
     4    2    9 1    
     5    2   10 ar   
     6    3    4 1    
     7    3   26 1    
     8    3   31 1    
     9    3   32 1    
    10    4   29 1    
    11    4   33 1    
    12    4   34 1    
    13    5   26 1    
    14    5   27 1    
    15    5   35 1    
    16    5   36 1    
    17    6   21 1    
    18    6   37 1    
    19    6   38 1    
    20    6   39 1    
    21    7    8 1    
    22    8   12 ar   
    23   10   11 ar   
    24   10   40 1    
    25   11   12 ar   
    26   11   41 1    
    27   12   13 1    
    28   13   14 1    
    29   14   15 ar   
    30   14   19 ar   
    31   15   16 ar   
    32   15   42 1    
    33   16   17 ar   
    34   16   22 ar   
    35   17   18 ar   
    36   17   43 1    
    37   18   24 ar   
    38   19   20 2    
    39   19   21 ar   
    40   21   22 ar   
    41   22   23 ar   
    42   23   24 ar   
    43   24   25 1    
    44   25   26 1    
    45   25   44 1    
    46   26   45 1    
    47   27   28 1    
    48   27   46 1    
    49   27   47 1    
    50   28   48 1    
    51   29   49 1    
@<TRIPOS>SUBSTRUCTURE
     1 FLW         1 GROUP             0 A     ****    0 ROOT    
@<TRIPOS>MOLECULE
p38a_2e
46   49    1
SMALL
USER_CHARGES


@<TRIPOS>ATOM
      1 C1         31.6235   38.9529   26.1544 C.3       1 3FN        -0.1200 
      2 C2         31.0952   38.3551   27.4684 C.3       1 3FN         0.1400 
      3 C4         33.0541   38.9788   28.6539 C.3       1 3FN         0.1400 
      4 C5         33.6809   39.6144   27.4031 C.3       1 3FN        -0.1200 
      5 C24        38.2632   36.7144   17.0134 C.ar      1 3FN        -0.1150 
      6 O3         31.6350   39.0631   28.5784 O.3       1 3FN        -0.4000 
      7 C15        34.5448   34.9770   21.1828 C.ar      1 3FN         0.5567 
      8 C25        37.5969   36.1886   18.1373 C.ar      1 3FN         0.2200 
      9 C8         34.0445   38.9756   23.7378 C.ar      1 3FN         0.9663 
     10 C6         33.1562   38.9294   26.1332 C.3       1 3FN         0.1400 
     11 C10        34.8025   37.8108   21.4407 C.ar      1 3FN        -0.4920 
     12 C17        35.2536   37.1252   20.2344 C.ar      1 3FN        -0.1150 
     13 C23        37.6232   36.7427   15.7594 C.ar      1 3FN         0.2200 
     14 C22        36.3272   36.2163   15.6228 C.ar      1 3FN        -0.1150 
     15 C21        35.6719   35.6684   16.7395 C.ar      1 3FN        -0.1150 
     16 C9         34.3067   37.0366   22.5109 C.ar      1 3FN         0.7490 
     17 C11        34.8522   39.2088   21.6169 C.ar      1 3FN         0.6530 
     18 C16        35.1646   35.7815   20.1251 C.ar      1 3FN         0.0283 
     19 C20        36.2931   35.6640   18.0028 C.ar      1 3FN         0.0850 
     20 C18        33.6690   34.8315   23.4618 C.3       1 3FN        -0.1100 
     21 H21        38.0824   36.1953   19.1020 H         1 3FN        -0.2200 
     22 F1         38.2455   37.2821   14.6863 F         1 3FN        -0.2200 
     23 O26        35.6498   35.0616   19.0536 O.3       1 3FN        -0.1700 
     24 N7         34.4789   39.7925   22.7772 N.ar      1 3FN        -0.8390 
     25 O19        34.3290   33.7761   21.0235 O.2       1 3FN        -0.5000 
     26 N14        34.2121   35.6181   22.3415 N.pl3     1 3FN        -0.1550 
     27 N12        33.9306   37.6499   23.6560 N.ar      1 3FN        -0.8390 
     28 N13        33.6717   39.5652   24.9268 N.pl3     1 3FN        -0.7043 
     29 H11        31.2200   38.3997   25.3053 H         1 3FN         0.0600 
     30 H12        31.2771   39.9808   26.0536 H         1 3FN         0.0600 
     31 H21        30.0102   38.4341   27.5066 H         1 3FN         0.0300 
     32 H22        31.3432   37.2955   27.5444 H         1 3FN         0.0300 
     33 H41        33.3652   37.9383   28.7608 H         1 3FN         0.0300 
     34 H42        33.3890   39.5054   29.5480 H         1 3FN         0.0300 
     35 H51        33.4274   40.6742   27.3922 H         1 3FN         0.0600 
     36 H52        34.7681   39.5450   27.4512 H         1 3FN         0.0600 
     37 H24        39.2585   37.1158   17.1165 H         1 3FN         0.1150 
     38 H6         33.4882   37.8909   26.1541 H         1 3FN         0.0600 
     39 H17        35.7026   37.7356   19.4667 H         1 3FN         0.1150 
     40 H22        35.8385   36.2249   14.6624 H         1 3FN         0.1150 
     41 H21        34.6956   35.2322   16.6233 H         1 3FN         0.1150 
     42 H11        35.2183   39.8565   20.8356 H         1 3FN         0.0110 
     43 H181       34.0543   35.1876   24.4176 H         1 3FN         0.0600 
     44 H182       32.5822   34.9190   23.4834 H         1 3FN         0.0600 
     45 H183       33.9197   33.7705   23.4230 H         1 3FN         0.0600 
     46 HN1        33.7904   40.5685   24.9712 H         1 3FN         0.3800 
@<TRIPOS>BOND
     1    1    2 1    
     2    1   10 1    
     3    1   29 1    
     4    1   30 1    
     5    2    6 1    
     6    2   31 1    
     7    2   32 1    
     8    3    4 1    
     9    3    6 1    
    10    3   33 1    
    11    3   34 1    
    12    4   10 1    
    13    4   35 1    
    14    4   36 1    
    15    5    8 ar   
    16    5   13 ar   
    17    5   37 1    
    18    7   18 ar   
    19    7   25 2    
    20    7   26 ar   
    21    8   19 ar   
    22    8   21 1    
    23    9   24 ar   
    24    9   27 ar   
    25    9   28 1    
    26   10   28 1    
    27   10   38 1    
    28   11   12 ar   
    29   11   16 ar   
    30   11   17 ar   
    31   12   18 ar   
    32   12   39 1    
    33   13   14 ar   
    34   13   22 1    
    35   14   15 ar   
    36   14   40 1    
    37   15   19 ar   
    38   15   41 1    
    39   16   26 ar   
    40   16   27 ar   
    41   17   24 ar   
    42   17   42 1    
    43   18   23 1    
    44   19   23 1    
    45   20   26 1    
    46   20   43 1    
    47   20   44 1    
    48   20   45 1    
    49   28   46 1    
@<TRIPOS>SUBSTRUCTURE
     1 3FN         1 GROUP             0 C     ****    0 ROOT    
@<TRIPOS>MOLECULE
p38a_2ee
52   55    2
SMALL
USER_CHARGES


@<TRIPOS>ATOM
      1 C24        38.2632   36.7144   17.0134 C.ar      1 3FN        -0.1150 
      2 C15        34.5448   34.9770   21.1828 C.ar      1 3FN         0.5567 
      3 C25        37.5969   36.1886   18.1373 C.ar      1 3FN         0.2200 
      4 C8         34.0445   38.9756   23.7378 C.ar      1 3FN         0.9663 
      5 C10        34.8025   37.8108   21.4407 C.ar      1 3FN        -0.4920 
      6 C17        35.2536   37.1252   20.2344 C.ar      1 3FN        -0.1150 
      7 C23        37.6232   36.7427   15.7594 C.ar      1 3FN         0.2200 
      8 C22        36.3272   36.2163   15.6228 C.ar      1 3FN        -0.1150 
      9 C21        35.6719   35.6684   16.7395 C.ar      1 3FN        -0.1150 
     10 C9         34.3067   37.0366   22.5109 C.ar      1 3FN         0.7490 
     11 C11        34.8522   39.2088   21.6169 C.ar      1 3FN         0.6530 
     12 C16        35.1646   35.7815   20.1251 C.ar      1 3FN         0.0283 
     13 C20        36.2931   35.6640   18.0028 C.ar      1 3FN         0.0850 
     14 C18        33.6690   34.8315   23.4618 C.3       1 3FN        -0.1100 
     15 F15        38.2058   36.1970   19.3473 F         1 3FN        -0.2200 
     16 O26        35.6498   35.0616   19.0536 O.3       1 3FN        -0.1700 
     17 N7         34.4789   39.7925   22.7772 N.ar      1 3FN        -0.8390 
     18 O19        34.3290   33.7761   21.0235 O.2       1 3FN        -0.5000 
     19 N14        34.2121   35.6181   22.3415 N.pl3     1 3FN        -0.1550 
     20 N12        33.9306   37.6499   23.6560 N.ar      1 3FN        -0.8390 
     21 N13        33.6717   39.5652   24.9268 N.pl3     1 3FN        -0.7043 
     22 H24        39.2592   37.1166   17.1185 H         1 3FN         0.1150 
     23 H17        35.7058   37.7323   19.4647 H         1 3FN         0.1150 
     24 H24        35.8421   36.2282   14.6576 H         1 3FN         0.1150 
     25 H25        34.6846   35.2438   16.6307 H         1 3FN         0.1150 
     26 H11        35.2198   39.8603   20.8377 H         1 3FN         0.0110 
     27 H181       34.0543   35.1876   24.4176 H         1 3FN         0.0600 
     28 H182       32.5822   34.9190   23.4834 H         1 3FN         0.0600 
     29 H183       33.9197   33.7705   23.4230 H         1 3FN         0.0600 
     30 HN1        33.7852   40.5660   24.9351 H         1 3FN         0.3800 
     31 F31        38.2455   37.2821   14.6863 F         1 3FN         0.0000 
     32 C32        31.1100   37.9729   27.3010 C.3       1 3FN         0.0000 
     33 C33        31.6611   38.5722   25.9943 C.3       1 3FN         0.0000 
     34 C34        33.1562   38.9294   26.1332 C.3       1 3FN         0.0000 
     35 C35        33.3908   39.8166   27.3721 C.3       1 3FN         0.0000 
     36 C36        32.7866   39.1757   28.6347 C.3       1 3FN         0.0000 
     37 N37        31.3646   38.8968   28.4085 N.am      1 3FN         0.0000 
     38 H38        31.5983   37.0204   27.5124 H         1 3FN         0.0000 
     39 H39        30.0467   37.7537   27.1878 H         1 3FN         0.0000 
     40 H40        31.0879   39.4628   25.7324 H         1 3FN         0.0000 
     41 H41        31.5190   37.8622   25.1783 H         1 3FN         0.0000 
     42 H42        33.7145   38.0020   26.2747 H         1 3FN         0.0000 
     43 H43        34.4589   39.9815   27.5211 H         1 3FN         0.0000 
     44 H44        32.9417   40.7998   27.2223 H         1 3FN         0.0000 
     45 H45        33.3000   38.2423   28.8687 H         1 3FN         0.0000 
     46 H46        32.9443   39.8321   29.4925 H         1 3FN         0.0000 
     47 C47        30.3701   39.4617   29.1210 C.2       1 3FN         0.0000 
     48 O48        30.5429   40.2584   30.0415 O.2       1 3FN         0.0000 
     49 C49        29.0219   38.9970   28.6557 C.3       1 3FN         0.0000 
     50 H50        29.1442   38.2960   27.8301 H         1 3FN         0.0000 
     51 H51        28.5041   38.5032   29.4780 H         1 3FN         0.0000 
     52 H52        28.4378   39.8542   28.3211 H         1 3FN         0.0000 
@<TRIPOS>BOND
     1    1    3 ar   
     2    1    7 ar   
     3    1   22 1    
     4    2   12 ar   
     5    2   18 2    
     6    2   19 ar   
     7    3   13 ar   
     8    3   15 1    
     9    4   17 ar   
    10    4   20 ar   
    11    4   21 1    
    12    5    6 ar   
    13    5   10 ar   
    14    5   11 ar   
    15    6   12 ar   
    16    6   23 1    
    17    7    8 ar   
    18    7   31 1    
    19    8    9 ar   
    20    8   24 1    
    21    9   13 ar   
    22    9   25 1    
    23   10   19 ar   
    24   10   20 ar   
    25   11   17 ar   
    26   11   26 1    
    27   12   16 1    
    28   13   16 1    
    29   14   19 1    
    30   14   27 1    
    31   14   28 1    
    32   14   29 1    
    33   21   30 1    
    34   21   34 1    
    35   32   33 1    
    36   32   37 1    
    37   32   38 1    
    38   32   39 1    
    39   33   34 1    
    40   33   40 1    
    41   33   41 1    
    42   34   35 1    
    43   34   42 1    
    44   35   36 1    
    45   35   43 1    
    46   35   44 1    
    47   36   37 1    
    48   36   45 1    
    49   36   46 1    
    50   37   47 am   BACKBONE|DICT|INTERRES
    51   47   48 2    
    52   47   49 1    
    53   49   50 1    
    54   49   51 1    
    55   49   52 1    
@<TRIPOS>SUBSTRUCTURE
     1 3FN         1 GROUP             0 C     ****    0 ROOT    
     1 3FN        31 GROUP             0       ****    0 ROOT    
@<TRIPOS>MOLECULE
p38a_2y
45   47    2
SMALL
USER_CHARGES


@<TRIPOS>ATOM
      1 C24        38.2632   36.7144   17.0134 C.ar      1 3FN        -0.1150 
      2 C15        34.5448   34.9770   21.1828 C.ar      1 3FN         0.5567 
      3 C25        37.5969   36.1886   18.1373 C.ar      1 3FN         0.2200 
      4 C8         34.0445   38.9756   23.7378 C.ar      1 3FN         0.9663 
      5 C6         33.4630   38.6994   26.0837 C.3       1 3FN         0.1400 
      6 C10        34.8025   37.8108   21.4407 C.ar      1 3FN        -0.4920 
      7 C17        35.2536   37.1252   20.2344 C.ar      1 3FN        -0.1150 
      8 C23        37.6232   36.7427   15.7594 C.ar      1 3FN         0.2200 
      9 C22        36.3272   36.2163   15.6228 C.ar      1 3FN        -0.1150 
     10 C21        35.6719   35.6684   16.7395 C.ar      1 3FN        -0.1150 
     11 C9         34.3067   37.0366   22.5109 C.ar      1 3FN         0.7490 
     12 C11        34.8522   39.2088   21.6169 C.ar      1 3FN         0.6530 
     13 C16        35.1646   35.7815   20.1251 C.ar      1 3FN         0.0283 
     14 C20        36.2931   35.6640   18.0028 C.ar      1 3FN         0.0850 
     15 C18        33.6690   34.8315   23.4618 C.3       1 3FN        -0.1100 
     16 F16        38.2058   36.1970   19.3473 F         1 3FN        -0.2200 
     17 O26        35.6498   35.0616   19.0536 O.3       1 3FN        -0.1700 
     18 N7         34.4789   39.7925   22.7772 N.ar      1 3FN        -0.8390 
     19 O19        34.3290   33.7761   21.0235 O.2       1 3FN        -0.5000 
     20 N14        34.2121   35.6181   22.3415 N.pl3     1 3FN        -0.1550 
     21 N12        33.9306   37.6499   23.6560 N.ar      1 3FN        -0.8390 
     22 N13        33.6717   39.5652   24.9268 N.pl3     1 3FN        -0.7043 
     23 H24        39.2592   37.1167   17.1185 H         1 3FN         0.1150 
     24 H6         34.4003   38.5898   26.6293 H         1 3FN         0.0600 
     25 H17        35.7050   37.7328   19.4647 H         1 3FN         0.1150 
     26 H26        35.8422   36.2281   14.6575 H         1 3FN         0.1150 
     27 H27        34.6847   35.2437   16.6306 H         1 3FN         0.1150 
     28 H11        35.2197   39.8603   20.8377 H         1 3FN         0.0110 
     29 H181       33.9197   33.7705   23.4230 H         1 3FN         0.0600 
     30 H182       34.0543   35.1876   24.4176 H         1 3FN         0.0600 
     31 H183       32.5822   34.9190   23.4834 H         1 3FN         0.0600 
     32 HN1        33.9291   40.5272   25.0719 H         1 3FN         0.3800 
     33 F33        38.2455   37.2821   14.6863 F         1 3FN         0.0000 
     34 C34        32.4288   39.3081   26.9837 C.3       1 3FN         0.0000 
     35 H62        33.1215   37.7203   25.7479 H         1 3FN         0.0000 
     36 C36        32.2145   38.4185   28.1723 C.3       1 3FN         0.0000 
     37 O37        32.8612   40.5477   27.4089 O.3       1 3FN         0.0000 
     38 C38        31.1390   39.4588   26.2330 C.3       1 3FN         0.0000 
     39 H39        33.7568   40.8251   27.0611 H         1 3FN         0.0000 
     40 H40        31.8729   37.4394   27.8365 H         1 3FN         0.0000 
     41 H41        33.1517   38.3089   28.7179 H         1 3FN         0.0000 
     42 H42        31.4630   38.8608   28.8263 H         1 3FN         0.0000 
     43 H43        30.7975   38.4797   25.8971 H         1 3FN         0.0000 
     44 H44        30.3875   39.9011   26.8870 H         1 3FN         0.0000 
     45 H45        31.2948   40.1052   25.3693 H         1 3FN         0.0000 
@<TRIPOS>BOND
     1    1    3 ar   
     2    1    8 ar   
     3    1   23 1    
     4    2   13 ar   
     5    2   19 2    
     6    2   20 ar   
     7    3   14 ar   
     8    3   16 1    
     9    4   18 ar   
    10    4   21 ar   
    11    4   22 1    
    12    5   22 1    
    13    5   24 1    
    14    5   34 1    
    15    5   35 1    
    16    6    7 ar   
    17    6   11 ar   
    18    6   12 ar   
    19    7   13 ar   
    20    7   25 1    
    21    8    9 ar   
    22    8   33 1    
    23    9   10 ar   
    24    9   26 1    
    25   10   14 ar   
    26   10   27 1    
    27   11   20 ar   
    28   11   21 ar   
    29   12   18 ar   
    30   12   28 1    
    31   13   17 1    
    32   14   17 1    
    33   15   20 1    
    34   15   29 1    
    35   15   30 1    
    36   15   31 1    
    37   22   32 1    
    38   34   36 1    
    39   34   37 1    
    40   34   38 1    
    41   36   40 1    
    42   36   41 1    
    43   36   42 1    
    44   37   39 1    
    45   38   43 1    
    46   38   44 1    
    47   38   45 1    
@<TRIPOS>SUBSTRUCTURE
     1 3FN         1 GROUP             0 C     ****    0 ROOT    
     1 3FN        33 GROUP             0       ****    0 ROOT    
@<TRIPOS>MOLECULE
p38a_2i
48   51    2
SMALL
USER_CHARGES


@<TRIPOS>ATOM
      1 C1         31.6235   38.9529   26.1544 C.3       1 3FN        -0.1200 
      2 C2         31.0952   38.3551   27.4684 C.3       1 3FN         0.1400 
      3 C4         33.0541   38.9788   28.6539 C.3       1 3FN         0.1400 
      4 C5         33.6809   39.6144   27.4031 C.3       1 3FN        -0.1200 
      5 C24        38.3660   36.7077   16.8209 C.ar      1 3FN        -0.1150 
      6 O3         31.6350   39.0631   28.5784 O.3       1 3FN        -0.4000 
      7 C15        34.5448   34.9770   21.1828 C.ar      1 3FN         0.5567 
      8 C25        37.6997   36.1819   17.9448 C.ar      1 3FN         0.2200 
      9 C8         34.0445   38.9756   23.7378 C.ar      1 3FN         0.9663 
     10 C6         33.1562   38.9294   26.1332 C.3       1 3FN         0.1400 
     11 C10        34.8025   37.8108   21.4407 C.ar      1 3FN        -0.4920 
     12 C17        35.2536   37.1252   20.2344 C.ar      1 3FN        -0.1150 
     13 C23        37.7260   36.7360   15.5669 C.ar      1 3FN         0.2200 
     14 C22        36.4300   36.2096   15.4303 C.ar      1 3FN        -0.1150 
     15 C21        35.7747   35.6617   16.5471 C.ar      1 3FN        -0.1150 
     16 C9         34.3067   37.0366   22.5109 C.ar      1 3FN         0.7490 
     17 C11        34.8522   39.2088   21.6169 C.ar      1 3FN         0.6530 
     18 C16        35.1646   35.7815   20.1251 C.ar      1 3FN         0.0283 
     19 C20        36.3960   35.6573   17.8103 C.ar      1 3FN         0.0850 
     20 C18        33.6690   34.8315   23.4618 C.3       1 3FN        -0.1100 
     21 F21        38.2989   36.1901   19.1355 F         1 3FN        -0.2200 
     22 C22        35.6924   34.9985   18.9596 C.3       1 3FN        -0.1700 
     23 N7         34.4789   39.7925   22.7772 N.ar      1 3FN        -0.8390 
     24 O19        34.3290   33.7761   21.0235 O.2       1 3FN        -0.5000 
     25 N14        34.2121   35.6181   22.3415 N.pl3     1 3FN        -0.1550 
     26 N12        33.9306   37.6499   23.6560 N.ar      1 3FN        -0.8390 
     27 N13        33.6717   39.5652   24.9268 N.pl3     1 3FN        -0.7043 
     28 H11        31.2200   38.3997   25.3053 H         1 3FN         0.0600 
     29 H12        31.2771   39.9808   26.0536 H         1 3FN         0.0600 
     30 H21        30.0102   38.4341   27.5066 H         1 3FN         0.0300 
     31 H22        31.3432   37.2955   27.5444 H         1 3FN         0.0300 
     32 H41        33.3652   37.9383   28.7608 H         1 3FN         0.0300 
     33 H42        33.3890   39.5054   29.5480 H         1 3FN         0.0300 
     34 H51        33.4274   40.6742   27.3922 H         1 3FN         0.0600 
     35 H52        34.7681   39.5450   27.4512 H         1 3FN         0.0600 
     36 H24        39.3613   37.1091   16.9241 H         1 3FN         0.1150 
     37 H6         33.4882   37.8909   26.1541 H         1 3FN         0.0600 
     38 H17        35.7026   37.7356   19.4667 H         1 3FN         0.1150 
     39 H39        35.9403   36.2182   14.4678 H         1 3FN         0.1150 
     40 H40        34.7945   35.2237   16.4304 H         1 3FN         0.1150 
     41 H11        35.2183   39.8565   20.8356 H         1 3FN         0.0110 
     42 H181       34.0543   35.1876   24.4176 H         1 3FN         0.0600 
     43 H182       32.5822   34.9190   23.4834 H         1 3FN         0.0600 
     44 H183       33.9197   33.7705   23.4230 H         1 3FN         0.0600 
     45 HN1        33.7904   40.5685   24.9712 H         1 3FN         0.3800 
     46 H46        38.2229   37.1667   14.7102 H         1 3FN         0.0000 
     47 H47        36.4277   34.2745   19.3107 H         1 3FN         0.0000 
     48 H48        34.8709   34.4738   18.4718 H         1 3FN         0.0000 
@<TRIPOS>BOND
     1    1    2 1    
     2    1   10 1    
     3    1   28 1    
     4    1   29 1    
     5    2    6 1    
     6    2   30 1    
     7    2   31 1    
     8    3    4 1    
     9    3    6 1    
    10    3   32 1    
    11    3   33 1    
    12    4   10 1    
    13    4   34 1    
    14    4   35 1    
    15    5    8 ar   
    16    5   13 ar   
    17    5   36 1    
    18    7   18 ar   
    19    7   24 2    
    20    7   25 ar   
    21    8   19 ar   
    22    8   21 1    
    23    9   23 ar   
    24    9   26 ar   
    25    9   27 1    
    26   10   27 1    
    27   10   37 1    
    28   11   12 ar   
    29   11   16 ar   
    30   11   17 ar   
    31   12   18 ar   
    32   12   38 1    
    33   13   14 ar   
    34   13   46 1    
    35   14   15 ar   
    36   14   39 1    
    37   15   19 ar   
    38   15   40 1    
    39   16   25 ar   
    40   16   26 ar   
    41   17   23 ar   
    42   17   41 1    
    43   18   22 1    
    44   19   22 1    
    45   20   25 1    
    46   20   42 1    
    47   20   43 1    
    48   20   44 1    
    49   22   47 1    
    50   22   48 1    
    51   27   45 1    
@<TRIPOS>SUBSTRUCTURE
     1 3FN         1 GROUP             0 C     ****    0 ROOT    
     1 3FN        46 GROUP             0       ****    0 ROOT    
@<TRIPOS>MOLECULE
p38a_2o
55   58    2
SMALL
USER_CHARGES


@<TRIPOS>ATOM
      1 C24        38.2632   36.7144   17.0134 C.ar      1 3FN        -0.1150 
      2 C15        34.5448   34.9770   21.1828 C.ar      1 3FN         0.5567 
      3 C25        37.5969   36.1886   18.1373 C.ar      1 3FN         0.2200 
      4 C8         34.0445   38.9756   23.7378 C.ar      1 3FN         0.9663 
      5 C10        34.8025   37.8108   21.4407 C.ar      1 3FN        -0.4920 
      6 C17        35.2536   37.1252   20.2344 C.ar      1 3FN        -0.1150 
      7 C23        37.6232   36.7427   15.7594 C.ar      1 3FN         0.2200 
      8 C22        36.3272   36.2163   15.6228 C.ar      1 3FN        -0.1150 
      9 C21        35.6719   35.6684   16.7395 C.ar      1 3FN        -0.1150 
     10 C9         34.3067   37.0366   22.5109 C.ar      1 3FN         0.7490 
     11 C11        34.8522   39.2088   21.6169 C.ar      1 3FN         0.6530 
     12 C16        35.1646   35.7815   20.1251 C.ar      1 3FN         0.0283 
     13 C20        36.2931   35.6640   18.0028 C.ar      1 3FN         0.0850 
     14 F14        38.2058   36.1970   19.3473 F         1 3FN        -0.2200 
     15 O26        35.6498   35.0616   19.0536 O.3       1 3FN        -0.1700 
     16 N7         34.4789   39.7925   22.7772 N.ar      1 3FN        -0.8390 
     17 O19        34.3290   33.7761   21.0235 O.2       1 3FN        -0.5000 
     18 N14        34.2121   35.6181   22.3415 N.pl3     1 3FN        -0.1550 
     19 N12        33.9306   37.6499   23.6560 N.ar      1 3FN        -0.8390 
     20 N13        33.6717   39.5652   24.9268 N.pl3     1 3FN        -0.7043 
     21 H24        39.2591   37.1167   17.1187 H         1 3FN         0.1150 
     22 H17        35.7054   37.7328   19.4650 H         1 3FN         0.1150 
     23 H23        35.8420   36.2282   14.6576 H         1 3FN         0.1150 
     24 H24        34.6848   35.2436   16.6304 H         1 3FN         0.1150 
     25 H11        35.2203   39.8603   20.8379 H         1 3FN         0.0110 
     26 HN1        33.7698   40.5676   24.9297 H         1 3FN         0.3800 
     27 F27        38.2455   37.2821   14.6863 F         1 3FN         0.0000 
     28 C28        31.0952   38.3551   27.4684 C.3       1 3FN         0.0000 
     29 C29        31.6235   38.9529   26.1544 C.3       1 3FN         0.0000 
     30 C30        33.1562   38.9294   26.1332 C.3       1 3FN         0.0000 
     31 C31        33.6809   39.6144   27.4031 C.3       1 3FN         0.0000 
     32 C32        33.0541   38.9788   28.6539 C.3       1 3FN         0.0000 
     33 O33        31.6350   39.0631   28.5784 O.3       1 3FN         0.0000 
     34 H34        31.3463   37.2957   27.5416 H         1 3FN         0.0000 
     35 H35        30.0078   38.4257   27.5010 H         1 3FN         0.0000 
     36 H36        31.2579   39.9756   26.0539 H         1 3FN         0.0000 
     37 H37        31.2258   38.3917   25.3078 H         1 3FN         0.0000 
     38 H38        33.4880   37.8899   26.1488 H         1 3FN         0.0000 
     39 H39        34.7675   39.5359   27.4548 H         1 3FN         0.0000 
     40 H40        33.4414   40.6785   27.3878 H         1 3FN         0.0000 
     41 H41        33.3636   37.9376   28.7590 H         1 3FN         0.0000 
     42 H42        33.3909   39.5019   29.5492 H         1 3FN         0.0000 
     43 C43        33.6690   34.8315   23.4618 C.3       1 3FN         0.0000 
     44 H44        33.9150   33.7698   23.4167 H         1 3FN         0.0000 
     45 H45        34.0576   35.1909   24.4151 H         1 3FN         0.0000 
     46 C46        32.1750   34.9620   23.4939 C.3       1 3FN         0.0000 
     47 H47        31.9045   36.0099   23.6236 H         1 3FN         0.0000 
     48 H48        31.7578   34.5923   22.5572 H         1 3FN         0.0000 
     49 S49        31.5252   34.0093   24.8498 S.o2      1 3FN         1.2618 
     50 O50        30.6869   34.9015   25.6580 O.2       1 3FN        -0.7248 
     51 O51        32.6388   33.2568   25.4378 O.2       1 3FN        -0.7244 
     52 C52        30.4496   32.8403   24.0466 C.3       1 3FN         0.0000 
     53 H53        29.9904   32.1950   24.7954 H         1 3FN         0.0000 
     54 H54        29.6718   33.3764   23.5027 H         1 3FN         0.0000 
     55 H55        31.0280   32.2337   23.3497 H         1 3FN         0.0000 
@<TRIPOS>BOND
     1    1    3 ar   
     2    1    7 ar   
     3    1   21 1    
     4    2   12 ar   
     5    2   17 2    
     6    2   18 ar   
     7    3   13 ar   
     8    3   14 1    
     9    4   16 ar   
    10    4   19 ar   
    11    4   20 1    
    12    5    6 ar   
    13    5   10 ar   
    14    5   11 ar   
    15    6   12 ar   
    16    6   22 1    
    17    7    8 ar   
    18    7   27 1    
    19    8    9 ar   
    20    8   23 1    
    21    9   13 ar   
    22    9   24 1    
    23   10   18 ar   
    24   10   19 ar   
    25   11   16 ar   
    26   11   25 1    
    27   12   15 1    
    28   13   15 1    
    29   18   43 1    
    30   20   26 1    
    31   20   30 1    
    32   28   29 1    
    33   28   33 1    
    34   28   34 1    
    35   28   35 1    
    36   29   30 1    
    37   29   36 1    
    38   29   37 1    
    39   30   31 1    
    40   30   38 1    
    41   31   32 1    
    42   31   39 1    
    43   31   40 1    
    44   32   33 1    
    45   32   41 1    
    46   32   42 1    
    47   43   44 1    
    48   43   45 1    
    49   43   46 1    
    50   46   47 1    
    51   46   48 1    
    52   46   49 1    
    53   49   50 2    
    54   49   51 2    
    55   49   52 1    
    56   52   53 1    
    57   52   54 1    
    58   52   55 1    
@<TRIPOS>SUBSTRUCTURE
     1 3FN         1 GROUP             0 C     ****    0 ROOT    
     1 3FN        27 GROUP             0       ****    0 ROOT    
@<TRIPOS>MOLECULE
p38a_2ff
49   52    2
SMALL
USER_CHARGES


@<TRIPOS>ATOM
      1 C24        38.2632   36.7144   17.0134 C.ar      1 3FN        -0.1150 
      2 C15        34.5448   34.9770   21.1828 C.ar      1 3FN         0.5567 
      3 C25        37.5969   36.1886   18.1373 C.ar      1 3FN         0.2200 
      4 C8         34.0445   38.9756   23.7378 C.ar      1 3FN         0.9663 
      5 C10        34.8025   37.8108   21.4407 C.ar      1 3FN        -0.4920 
      6 C17        35.2536   37.1252   20.2344 C.ar      1 3FN        -0.1150 
      7 C23        37.6232   36.7427   15.7594 C.ar      1 3FN         0.2200 
      8 C22        36.3272   36.2163   15.6228 C.ar      1 3FN        -0.1150 
      9 C21        35.6719   35.6684   16.7395 C.ar      1 3FN        -0.1150 
     10 C9         34.3067   37.0366   22.5109 C.ar      1 3FN         0.7490 
     11 C11        34.8522   39.2088   21.6169 C.ar      1 3FN         0.6530 
     12 C16        35.1646   35.7815   20.1251 C.ar      1 3FN         0.0283 
     13 C20        36.2931   35.6640   18.0028 C.ar      1 3FN         0.0850 
     14 C18        33.6690   34.8315   23.4618 C.3       1 3FN        -0.1100 
     15 F15        38.2058   36.1970   19.3473 F         1 3FN        -0.2200 
     16 O26        35.6498   35.0616   19.0536 O.3       1 3FN        -0.1700 
     17 N7         34.4789   39.7925   22.7772 N.ar      1 3FN        -0.8390 
     18 O19        34.3290   33.7761   21.0235 O.2       1 3FN        -0.5000 
     19 N14        34.2121   35.6181   22.3415 N.pl3     1 3FN        -0.1550 
     20 N12        33.9306   37.6499   23.6560 N.ar      1 3FN        -0.8390 
     21 N13        33.6717   39.5652   24.9268 N.pl3     1 3FN        -0.7043 
     22 H24        39.2592   37.1166   17.1185 H         1 3FN         0.1150 
     23 H17        35.7055   37.7327   19.4650 H         1 3FN         0.1150 
     24 H24        35.8420   36.2284   14.6576 H         1 3FN         0.1150 
     25 H25        34.6845   35.2440   16.6309 H         1 3FN         0.1150 
     26 H11        35.2196   39.8604   20.8377 H         1 3FN         0.0110 
     27 H181       34.0543   35.1876   24.4176 H         1 3FN         0.0600 
     28 H182       32.5822   34.9190   23.4834 H         1 3FN         0.0600 
     29 H183       33.9197   33.7705   23.4230 H         1 3FN         0.0600 
     30 HN1        33.7763   40.5662   24.9344 H         1 3FN         0.3800 
     31 F31        38.2455   37.2821   14.6863 F         1 3FN         0.0000 
     32 C32        31.1136   37.9364   27.2746 C.3       1 3FN         0.0000 
     33 C33        31.6573   38.5957   25.9972 C.3       1 3FN         0.0000 
     34 C34        33.1562   38.9294   26.1332 C.3       1 3FN         0.0000 
     35 C35        33.4017   39.8170   27.3678 C.3       1 3FN         0.0000 
     36 C36        32.8616   39.1556   28.6459 C.3       1 3FN         0.0000 
     37 C37        31.3689   38.8148   28.5098 C.3       1 3FN         0.0000 
     38 H38        31.5895   36.9644   27.4114 H         1 3FN         0.0000 
     39 H39        30.0456   37.7439   27.1678 H         1 3FN         0.0000 
     40 H40        31.0898   39.5029   25.7853 H         1 3FN         0.0000 
     41 H41        31.4978   37.9267   25.1503 H         1 3FN         0.0000 
     42 H42        33.7054   37.9959   26.2697 H         1 3FN         0.0000 
     43 H43        34.4691   40.0102   27.4839 H         1 3FN         0.0000 
     44 H44        32.9216   40.7875   27.2342 H         1 3FN         0.0000 
     45 H45        33.4272   38.2458   28.8521 H         1 3FN         0.0000 
     46 H46        33.0169   39.8151   29.5003 H         1 3FN         0.0000 
     47 H47        30.7875   39.7347   28.4323 H         1 3FN         0.0000 
     48 O48        30.9268   38.1693   29.6466 O.3       1 3FN         0.0000 
     49 H49        31.3803   37.2998   29.8423 H         1 3FN         0.0000 
@<TRIPOS>BOND
     1    1    3 ar   
     2    1    7 ar   
     3    1   22 1    
     4    2   12 ar   
     5    2   18 2    
     6    2   19 ar   
     7    3   13 ar   
     8    3   15 1    
     9    4   17 ar   
    10    4   20 ar   
    11    4   21 1    
    12    5    6 ar   
    13    5   10 ar   
    14    5   11 ar   
    15    6   12 ar   
    16    6   23 1    
    17    7    8 ar   
    18    7   31 1    
    19    8    9 ar   
    20    8   24 1    
    21    9   13 ar   
    22    9   25 1    
    23   10   19 ar   
    24   10   20 ar   
    25   11   17 ar   
    26   11   26 1    
    27   12   16 1    
    28   13   16 1    
    29   14   19 1    
    30   14   27 1    
    31   14   28 1    
    32   14   29 1    
    33   21   30 1    
    34   21   34 1    
    35   32   33 1    
    36   32   37 1    
    37   32   38 1    
    38   32   39 1    
    39   33   34 1    
    40   33   40 1    
    41   33   41 1    
    42   34   35 1    
    43   34   42 1    
    44   35   36 1    
    45   35   43 1    
    46   35   44 1    
    47   36   37 1    
    48   36   45 1    
    49   36   46 1    
    50   37   47 1    
    51   37   48 1    
    52   48   49 1    
@<TRIPOS>SUBSTRUCTURE
     1 3FN         1 GROUP             0 C     ****    0 ROOT    
     1 3FN        31 GROUP             0       ****    0 ROOT    
@<TRIPOS>MOLECULE
p38a_2m
50   54    2
SMALL
USER_CHARGES


@<TRIPOS>ATOM
      1 C24        38.2632   36.7144   17.0134 C.ar      1 3FN        -0.1150 
      2 C15        34.5448   34.9770   21.1828 C.ar      1 3FN         0.5567 
      3 C25        37.5969   36.1886   18.1373 C.ar      1 3FN         0.2200 
      4 C8         34.0445   38.9756   23.7378 C.ar      1 3FN         0.9663 
      5 C10        34.8025   37.8108   21.4407 C.ar      1 3FN        -0.4920 
      6 C17        35.2536   37.1252   20.2344 C.ar      1 3FN        -0.1150 
      7 C23        37.6232   36.7427   15.7594 C.ar      1 3FN         0.2200 
      8 C22        36.3272   36.2163   15.6228 C.ar      1 3FN        -0.1150 
      9 C21        35.6719   35.6684   16.7395 C.ar      1 3FN        -0.1150 
     10 C9         34.3067   37.0366   22.5109 C.ar      1 3FN         0.7490 
     11 C11        34.8522   39.2088   21.6169 C.ar      1 3FN         0.6530 
     12 C16        35.1646   35.7815   20.1251 C.ar      1 3FN         0.0283 
     13 C20        36.2931   35.6640   18.0028 C.ar      1 3FN         0.0850 
     14 F14        38.2058   36.1970   19.3473 F         1 3FN        -0.2200 
     15 O26        35.6498   35.0616   19.0536 O.3       1 3FN        -0.1700 
     16 N7         34.4789   39.7925   22.7772 N.ar      1 3FN        -0.8390 
     17 O19        34.3290   33.7761   21.0235 O.2       1 3FN        -0.5000 
     18 N14        34.2121   35.6181   22.3415 N.pl3     1 3FN        -0.1550 
     19 N12        33.9306   37.6499   23.6560 N.ar      1 3FN        -0.8390 
     20 N13        33.6717   39.5652   24.9268 N.pl3     1 3FN        -0.7043 
     21 H24        39.2590   37.1169   17.1189 H         1 3FN         0.1150 
     22 H17        35.7052   37.7326   19.4650 H         1 3FN         0.1150 
     23 H23        35.8420   36.2284   14.6576 H         1 3FN         0.1150 
     24 H24        34.6846   35.2440   16.6308 H         1 3FN         0.1150 
     25 H11        35.2195   39.8602   20.8376 H         1 3FN         0.0110 
     26 HN1        33.7702   40.5677   24.9292 H         1 3FN         0.3800 
     27 F27        38.2455   37.2821   14.6863 F         1 3FN         0.0000 
     28 C28        31.0952   38.3551   27.4684 C.3       1 3FN         0.0000 
     29 C29        31.6235   38.9529   26.1544 C.3       1 3FN         0.0000 
     30 C30        33.1562   38.9294   26.1332 C.3       1 3FN         0.0000 
     31 C31        33.6809   39.6144   27.4031 C.3       1 3FN         0.0000 
     32 C32        33.0541   38.9788   28.6539 C.3       1 3FN         0.0000 
     33 O33        31.6350   39.0631   28.5784 O.3       1 3FN         0.0000 
     34 H34        31.3462   37.2957   27.5420 H         1 3FN         0.0000 
     35 H35        30.0078   38.4258   27.5011 H         1 3FN         0.0000 
     36 H36        31.2581   39.9758   26.0545 H         1 3FN         0.0000 
     37 H37        31.2252   38.3926   25.3075 H         1 3FN         0.0000 
     38 H38        33.4881   37.8900   26.1492 H         1 3FN         0.0000 
     39 H39        34.7676   39.5365   27.4548 H         1 3FN         0.0000 
     40 H40        33.4411   40.6784   27.3878 H         1 3FN         0.0000 
     41 H41        33.3635   37.9376   28.7593 H         1 3FN         0.0000 
     42 H42        33.3907   39.5020   29.5492 H         1 3FN         0.0000 
     43 C43        33.6324   34.8358   23.4295 C.3       1 3FN         0.0000 
     44 C44        34.2914   34.8766   24.7897 C.3       1 3FN         0.0000 
     45 C45        34.3845   33.6283   23.9417 C.3       1 3FN         0.0000 
     46 H46        32.5426   34.7932   23.3726 H         1 3FN         0.0000 
     47 H47        35.1847   35.4902   24.9247 H         1 3FN         0.0000 
     48 H48        33.6613   34.8624   25.6816 H         1 3FN         0.0000 
     49 H49        35.3427   33.3711   23.4851 H         1 3FN         0.0000 
     50 H50        33.8193   32.7433   24.2420 H         1 3FN         0.0000 
@<TRIPOS>BOND
     1    1    3 ar   
     2    1    7 ar   
     3    1   21 1    
     4    2   12 ar   
     5    2   17 2    
     6    2   18 ar   
     7    3   13 ar   
     8    3   14 1    
     9    4   16 ar   
    10    4   19 ar   
    11    4   20 1    
    12    5    6 ar   
    13    5   10 ar   
    14    5   11 ar   
    15    6   12 ar   
    16    6   22 1    
    17    7    8 ar   
    18    7   27 1    
    19    8    9 ar   
    20    8   23 1    
    21    9   13 ar   
    22    9   24 1    
    23   10   18 ar   
    24   10   19 ar   
    25   11   16 ar   
    26   11   25 1    
    27   12   15 1    
    28   13   15 1    
    29   18   43 1    
    30   20   26 1    
    31   20   30 1    
    32   28   29 1    
    33   28   33 1    
    34   28   34 1    
    35   28   35 1    
    36   29   30 1    
    37   29   36 1    
    38   29   37 1    
    39   30   31 1    
    40   30   38 1    
    41   31   32 1    
    42   31   39 1    
    43   31   40 1    
    44   32   33 1    
    45   32   41 1    
    46   32   42 1    
    47   43   44 1    
    48   43   45 1    
    49   43   46 1    
    50   44   45 1    
    51   44   47 1    
    52   44   48 1    
    53   45   49 1    
    54   45   50 1    
@<TRIPOS>SUBSTRUCTURE
     1 3FN         1 GROUP             0 C     ****    0 ROOT    
     1 3FN        27 GROUP             0       ****    0 ROOT    
