@<TRIPOS>MOLECULE
30
51   54    1
SMALL
USER_CHARGES


@<TRIPOS>ATOM
      1 C1         49.7062   35.2933   22.2815 C.ar      1 UNK         0.0000 
      2 C2         45.9302   37.0257   23.6071 C.ar      1 UNK         0.0000 
      3 C3         48.8379   32.3201   24.8473 C.3       1 UNK         0.0000 
      4 C4         48.6813   31.5331   26.1493 C.3       1 UNK         0.0000 
      5 C5         49.3717   30.1649   25.9895 C.3       1 UNK         0.0000 
      6 C6         49.3394   29.3593   27.2905 C.3       1 UNK         0.0000 
      7 C7         49.9805   30.1374   28.4455 C.3       1 UNK         0.0000 
      8 C8         49.2701   31.4845   28.6409 C.3       1 UNK         0.0000 
      9 C9         49.2789   32.3118   27.3449 C.3       1 UNK         0.0000 
     10 C10        53.9199   33.1367   21.3208 C.ar      1 UNK         0.0000 
     11 C11        54.1950   32.7827   22.6551 C.ar      1 UNK         0.0000 
     12 C12        53.3788   33.2677   23.6919 C.ar      1 UNK         0.0000 
     13 C13        52.2811   34.0929   23.3887 C.ar      1 UNK         0.0000 
     14 N14        49.3575   34.3144   23.1169 N.ar      1 UNK         0.0000 
     15 C15        48.2202   34.3886   23.8394 C.ar      1 UNK         0.0000 
     16 O16        47.9527   33.4370   24.8002 O.3       1 UNK         0.0000 
     17 C17        47.3803   35.5051   23.6436 C.ar      1 UNK         0.0000 
     18 N18        46.1711   35.8957   24.2031 N.2       1 UNK         0.0000 
     19 N19        46.8878   37.4312   22.7186 N.pl3     1 UNK         0.0000 
     20 C20        47.8243   36.4333   22.7259 C.ar      1 UNK         0.0000 
     21 N21        48.9772   36.3771   21.9912 N.ar      1 UNK         0.0000 
     22 N22        50.9362   35.2399   21.7355 N.pl3     1 UNK         0.0000 
     23 C23        51.9759   34.4305   22.0489 C.ar      1 UNK         0.0000 
     24 C24        52.8214   33.9663   21.0201 C.ar      1 UNK         0.0000 
     25 H25        45.0353   37.5898   23.7999 H         1 UNK         0.0000 
     26 H26        49.8869   32.6141   24.7846 H         1 UNK         0.0000 
     27 H27        48.6296   31.6849   23.9846 H         1 UNK         0.0000 
     28 H28        47.6196   31.3599   26.3320 H         1 UNK         0.0000 
     29 H29        48.8868   29.5954   25.1962 H         1 UNK         0.0000 
     30 H30        50.4081   30.3036   25.6789 H         1 UNK         0.0000 
     31 H31        48.3028   29.1534   27.5433 H         1 UNK         0.0000 
     32 H32        49.8364   28.3974   27.1566 H         1 UNK         0.0000 
     33 H33        49.9234   29.5544   29.3651 H         1 UNK         0.0000 
     34 H34        51.0400   30.3023   28.2436 H         1 UNK         0.0000 
     35 H35        48.2398   31.3156   28.9588 H         1 UNK         0.0000 
     36 H36        49.7483   32.0457   29.4428 H         1 UNK         0.0000 
     37 H37        50.3065   32.6025   27.1205 H         1 UNK         0.0000 
     38 H38        48.7265   33.2405   27.4982 H         1 UNK         0.0000 
     39 H39        54.5566   32.7798   20.5255 H         1 UNK         0.0000 
     40 H40        53.5935   33.0128   24.7195 H         1 UNK         0.0000 
     41 H41        51.6721   34.4602   24.1997 H         1 UNK         0.0000 
     42 H42        46.9102   38.2663   22.1423 H         1 UNK         0.0000 
     43 H43        51.0817   35.8298   20.9262 H         1 UNK         0.0000 
     44 H44        52.6299   34.2366   19.9926 H         1 UNK         0.0000 
     45 S45        55.3757   31.9153   22.9764 S.o2      1 UNK         0.0000 
     46 O46        55.8451   31.3170   21.7325 O.2       1 UNK         0.0000 
     47 O47        56.2703   32.6766   23.8401 O.2       1 UNK         0.0000 
     48 C48        54.8977   30.7664   23.8141 C.3       1 UNK         0.0000 
     49 H49        55.7645   30.1453   24.0398 H         1 UNK         0.0000 
     50 H50        54.4593   31.1844   24.7202 H         1 UNK         0.0000 
     51 H51        54.1581   30.2214   23.2275 H         1 UNK         0.0000 
@<TRIPOS>BOND
     1    1   14 ar   
     2    1   21 ar   
     3    1   22 1    
     4    2   18 ar   
     5    2   19 ar   
     6    2   25 1    
     7    3    4 1    
     8    3   16 1    
     9    3   26 1    
    10    3   27 1    
    11    4    5 1    
    12    4    9 1    
    13    4   28 1    
    14    5    6 1    
    15    5   29 1    
    16    5   30 1    
    17    6    7 1    
    18    6   31 1    
    19    6   32 1    
    20    7    8 1    
    21    7   33 1    
    22    7   34 1    
    23    8    9 1    
    24    8   35 1    
    25    8   36 1    
    26    9   37 1    
    27    9   38 1    
    28   10   11 ar   
    29   10   24 ar   
    30   10   39 1    
    31   11   12 ar   
    32   11   45 1    
    33   12   13 ar   
    34   12   40 1    
    35   13   23 ar   
    36   13   41 1    
    37   14   15 ar   
    38   15   16 1    
    39   15   17 ar   
    40   17   18 ar   
    41   17   20 ar   
    42   19   20 ar   
    43   19   42 1    
    44   20   21 ar   
    45   22   23 1    
    46   22   43 1    
    47   23   24 ar   
    48   24   44 1    
    49   45   46 2    
    50   45   47 2    
    51   45   48 1    
    52   48   49 1    
    53   48   50 1    
    54   48   51 1    
@<TRIPOS>SUBSTRUCTURE
     1 UNK         1 GROUP             0       ****    0 ROOT    
@<TRIPOS>MOLECULE
28
53   56    1
SMALL
USER_CHARGES


@<TRIPOS>ATOM
      1 C1         49.7062   35.2933   22.2815 C.ar      1 UNK         0.0000 
      2 C2         45.9302   37.0257   23.6071 C.ar      1 UNK         0.0000 
      3 C3         48.8379   32.3201   24.8473 C.3       1 UNK         0.0000 
      4 C4         48.6813   31.5331   26.1493 C.3       1 UNK         0.0000 
      5 C5         49.3717   30.1649   25.9895 C.3       1 UNK         0.0000 
      6 C6         49.3394   29.3593   27.2905 C.3       1 UNK         0.0000 
      7 C7         49.9805   30.1374   28.4455 C.3       1 UNK         0.0000 
      8 C8         49.2701   31.4845   28.6409 C.3       1 UNK         0.0000 
      9 C9         49.2789   32.3118   27.3449 C.3       1 UNK         0.0000 
     10 C10        53.9199   33.1367   21.3208 C.ar      1 UNK         0.0000 
     11 C11        54.1950   32.7827   22.6551 C.ar      1 UNK         0.0000 
     12 C12        53.3788   33.2677   23.6919 C.ar      1 UNK         0.0000 
     13 C13        52.2811   34.0929   23.3887 C.ar      1 UNK         0.0000 
     14 N14        49.3575   34.3144   23.1169 N.ar      1 UNK         0.0000 
     15 C15        48.2202   34.3886   23.8394 C.ar      1 UNK         0.0000 
     16 O16        47.9527   33.4370   24.8002 O.3       1 UNK         0.0000 
     17 C17        47.3803   35.5051   23.6436 C.ar      1 UNK         0.0000 
     18 N18        46.1711   35.8957   24.2031 N.2       1 UNK         0.0000 
     19 N19        46.8878   37.4312   22.7186 N.pl3     1 UNK         0.0000 
     20 C20        47.8243   36.4333   22.7259 C.ar      1 UNK         0.0000 
     21 N21        48.9772   36.3771   21.9912 N.ar      1 UNK         0.0000 
     22 N22        50.9362   35.2399   21.7355 N.pl3     1 UNK         0.0000 
     23 C23        51.9759   34.4305   22.0489 C.ar      1 UNK         0.0000 
     24 C24        52.8214   33.9663   21.0201 C.ar      1 UNK         0.0000 
     25 H25        45.0353   37.5898   23.7999 H         1 UNK         0.0000 
     26 H26        49.8869   32.6141   24.7846 H         1 UNK         0.0000 
     27 H27        48.6296   31.6849   23.9846 H         1 UNK         0.0000 
     28 H28        47.6196   31.3599   26.3320 H         1 UNK         0.0000 
     29 H29        48.8868   29.5954   25.1962 H         1 UNK         0.0000 
     30 H30        50.4081   30.3036   25.6789 H         1 UNK         0.0000 
     31 H31        48.3028   29.1534   27.5433 H         1 UNK         0.0000 
     32 H32        49.8364   28.3974   27.1566 H         1 UNK         0.0000 
     33 H33        49.9234   29.5544   29.3651 H         1 UNK         0.0000 
     34 H34        51.0400   30.3023   28.2436 H         1 UNK         0.0000 
     35 H35        48.2398   31.3156   28.9588 H         1 UNK         0.0000 
     36 H36        49.7483   32.0457   29.4428 H         1 UNK         0.0000 
     37 H37        50.3065   32.6025   27.1205 H         1 UNK         0.0000 
     38 H38        48.7265   33.2405   27.4982 H         1 UNK         0.0000 
     39 H39        54.5566   32.7798   20.5255 H         1 UNK         0.0000 
     40 H40        53.5935   33.0128   24.7195 H         1 UNK         0.0000 
     41 H41        51.6721   34.4602   24.1997 H         1 UNK         0.0000 
     42 H42        46.9102   38.2663   22.1423 H         1 UNK         0.0000 
     43 H43        51.0817   35.8298   20.9262 H         1 UNK         0.0000 
     44 H44        52.6299   34.2366   19.9926 H         1 UNK         0.0000 
     45 S45        55.3757   31.9153   22.9764 S.o2      1 UNK         0.0000 
     46 O46        55.8451   31.3170   21.7325 O.2       1 UNK         0.0000 
     47 O47        56.2703   32.6766   23.8401 O.2       1 UNK         0.0000 
     48 N48        54.8264   30.5951   23.9390 N.pl3     1 UNK         0.0000 
     49 H49        54.4733   29.7694   23.4767 H         1 UNK         0.0000 
     50 C50        54.7436   30.7652   25.3756 C.3       1 UNK         0.0000 
     51 H51        54.3794   29.8269   25.7940 H         1 UNK         0.0000 
     52 H52        55.7460   30.9996   25.7340 H         1 UNK         0.0000 
     53 H53        54.0497   31.5837   25.5670 H         1 UNK         0.0000 
@<TRIPOS>BOND
     1    1   14 ar   
     2    1   21 ar   
     3    1   22 1    
     4    2   18 ar   
     5    2   19 ar   
     6    2   25 1    
     7    3    4 1    
     8    3   16 1    
     9    3   26 1    
    10    3   27 1    
    11    4    5 1    
    12    4    9 1    
    13    4   28 1    
    14    5    6 1    
    15    5   29 1    
    16    5   30 1    
    17    6    7 1    
    18    6   31 1    
    19    6   32 1    
    20    7    8 1    
    21    7   33 1    
    22    7   34 1    
    23    8    9 1    
    24    8   35 1    
    25    8   36 1    
    26    9   37 1    
    27    9   38 1    
    28   10   11 ar   
    29   10   24 ar   
    30   10   39 1    
    31   11   12 ar   
    32   11   45 1    
    33   12   13 ar   
    34   12   40 1    
    35   13   23 ar   
    36   13   41 1    
    37   14   15 ar   
    38   15   16 1    
    39   15   17 ar   
    40   17   18 ar   
    41   17   20 ar   
    42   19   20 ar   
    43   19   42 1    
    44   20   21 ar   
    45   22   23 1    
    46   22   43 1    
    47   23   24 ar   
    48   24   44 1    
    49   45   46 2    
    50   45   47 2    
    51   45   48 1    
    52   48   49 1    
    53   48   50 1    
    54   50   51 1    
    55   50   52 1    
    56   50   53 1    
@<TRIPOS>SUBSTRUCTURE
     1 UNK         1 GROUP             0       ****    0 ROOT    
@<TRIPOS>MOLECULE
1oiy
49   52    1
SMALL
USER_CHARGES


@<TRIPOS>ATOM
      1 C1         49.7062   35.2933   22.2815 C.ar      1 UNK         0.0000 
      2 C2         45.9302   37.0257   23.6071 C.ar      1 UNK         0.0000 
      3 C3         48.8379   32.3201   24.8473 C.3       1 UNK         0.0000 
      4 C4         48.6813   31.5331   26.1493 C.3       1 UNK         0.0000 
      5 C5         49.3717   30.1649   25.9895 C.3       1 UNK         0.0000 
      6 C6         49.3394   29.3593   27.2905 C.3       1 UNK         0.0000 
      7 C7         49.9805   30.1374   28.4455 C.3       1 UNK         0.0000 
      8 C8         49.2701   31.4845   28.6409 C.3       1 UNK         0.0000 
      9 C9         49.2789   32.3118   27.3449 C.3       1 UNK         0.0000 
     10 C10        53.9199   33.1367   21.3208 C.ar      1 UNK         0.0000 
     11 C11        54.1950   32.7827   22.6551 C.ar      1 UNK         0.0000 
     12 C12        53.3788   33.2677   23.6919 C.ar      1 UNK         0.0000 
     13 C13        52.2811   34.0929   23.3887 C.ar      1 UNK         0.0000 
     14 N14        49.3575   34.3144   23.1169 N.ar      1 UNK         0.0000 
     15 C15        48.2202   34.3886   23.8394 C.ar      1 UNK         0.0000 
     16 O16        47.9527   33.4370   24.8002 O.3       1 UNK         0.0000 
     17 C17        47.3803   35.5051   23.6436 C.ar      1 UNK         0.0000 
     18 N18        46.1711   35.8957   24.2031 N.2       1 UNK         0.0000 
     19 N19        46.8878   37.4312   22.7186 N.pl3     1 UNK         0.0000 
     20 C20        47.8243   36.4333   22.7259 C.ar      1 UNK         0.0000 
     21 N21        48.9772   36.3771   21.9912 N.ar      1 UNK         0.0000 
     22 N22        50.9362   35.2399   21.7355 N.pl3     1 UNK         0.0000 
     23 C23        51.9759   34.4305   22.0489 C.ar      1 UNK         0.0000 
     24 C24        52.8214   33.9663   21.0201 C.ar      1 UNK         0.0000 
     25 H25        45.0353   37.5898   23.7999 H         1 UNK         0.0000 
     26 H26        49.8869   32.6141   24.7846 H         1 UNK         0.0000 
     27 H27        48.6296   31.6849   23.9846 H         1 UNK         0.0000 
     28 H28        47.6196   31.3599   26.3320 H         1 UNK         0.0000 
     29 H29        48.8868   29.5954   25.1962 H         1 UNK         0.0000 
     30 H30        50.4081   30.3036   25.6789 H         1 UNK         0.0000 
     31 H31        48.3028   29.1534   27.5433 H         1 UNK         0.0000 
     32 H32        49.8364   28.3974   27.1566 H         1 UNK         0.0000 
     33 H33        49.9234   29.5544   29.3651 H         1 UNK         0.0000 
     34 H34        51.0400   30.3023   28.2436 H         1 UNK         0.0000 
     35 H35        48.2398   31.3156   28.9588 H         1 UNK         0.0000 
     36 H36        49.7483   32.0457   29.4428 H         1 UNK         0.0000 
     37 H37        50.3065   32.6025   27.1205 H         1 UNK         0.0000 
     38 H38        48.7265   33.2405   27.4982 H         1 UNK         0.0000 
     39 H39        54.5566   32.7798   20.5255 H         1 UNK         0.0000 
     40 H40        53.5935   33.0128   24.7195 H         1 UNK         0.0000 
     41 H41        51.6721   34.4602   24.1997 H         1 UNK         0.0000 
     42 H42        46.9102   38.2663   22.1423 H         1 UNK         0.0000 
     43 H43        51.0817   35.8298   20.9262 H         1 UNK         0.0000 
     44 H44        52.6299   34.2366   19.9926 H         1 UNK         0.0000 
     45 O45        56.1300   31.6550   22.0360 O.2       1 UNK         0.0000 
     46 C46        55.3466   31.9367   22.9685 C.2       1 UNK         0.0000 
     47 N47        55.5022   31.4700   24.3856 N.am      1 UNK         0.0000 
     48 H48        54.6751   31.8636   24.9947 H         1 UNK         0.0000 
     49 H49        56.2843   30.8844   24.6415 H         1 UNK         0.0000 
@<TRIPOS>BOND
     1    1   14 ar   
     2    1   21 ar   
     3    1   22 1    
     4    2   18 ar   
     5    2   19 ar   
     6    2   25 1    
     7    3    4 1    
     8    3   16 1    
     9    3   26 1    
    10    3   27 1    
    11    4    5 1    
    12    4    9 1    
    13    4   28 1    
    14    5    6 1    
    15    5   29 1    
    16    5   30 1    
    17    6    7 1    
    18    6   31 1    
    19    6   32 1    
    20    7    8 1    
    21    7   33 1    
    22    7   34 1    
    23    8    9 1    
    24    8   35 1    
    25    8   36 1    
    26    9   37 1    
    27    9   38 1    
    28   10   11 ar   
    29   10   24 ar   
    30   10   39 1    
    31   11   12 ar   
    32   11   46 1    
    33   12   13 ar   
    34   12   40 1    
    35   13   23 ar   
    36   13   41 1    
    37   14   15 ar   
    38   15   16 1    
    39   15   17 ar   
    40   17   18 ar   
    41   17   20 ar   
    42   19   20 ar   
    43   19   42 1    
    44   20   21 ar   
    45   22   23 1    
    46   22   43 1    
    47   23   24 ar   
    48   24   44 1    
    49   45   46 2    
    50   46   47 am   BACKBONE|DICT|INTERRES
    51   47   48 1    
    52   47   49 1    
@<TRIPOS>SUBSTRUCTURE
     1 UNK         1 GROUP             0       ****    0 ROOT    
@<TRIPOS>MOLECULE
1oi9
46   49    1
SMALL
USER_CHARGES


@<TRIPOS>ATOM
      1 C1         49.7062   35.2933   22.2815 C.ar      1 UNK         0.0000 
      2 C2         45.9302   37.0257   23.6071 C.ar      1 UNK         0.0000 
      3 C3         48.8379   32.3201   24.8473 C.3       1 UNK         0.0000 
      4 C4         48.6813   31.5331   26.1493 C.3       1 UNK         0.0000 
      5 C5         49.3717   30.1649   25.9895 C.3       1 UNK         0.0000 
      6 C6         49.3394   29.3593   27.2905 C.3       1 UNK         0.0000 
      7 C7         49.9805   30.1374   28.4455 C.3       1 UNK         0.0000 
      8 C8         49.2701   31.4845   28.6409 C.3       1 UNK         0.0000 
      9 C9         49.2789   32.3118   27.3449 C.3       1 UNK         0.0000 
     10 C10        53.9199   33.1367   21.3208 C.ar      1 UNK         0.0000 
     11 C11        54.1950   32.7827   22.6551 C.ar      1 UNK         0.0000 
     12 C12        53.3788   33.2677   23.6919 C.ar      1 UNK         0.0000 
     13 C13        52.2811   34.0929   23.3887 C.ar      1 UNK         0.0000 
     14 N14        49.3575   34.3144   23.1169 N.ar      1 UNK         0.0000 
     15 C15        48.2202   34.3886   23.8394 C.ar      1 UNK         0.0000 
     16 O16        47.9527   33.4370   24.8002 O.3       1 UNK         0.0000 
     17 C17        47.3803   35.5051   23.6436 C.ar      1 UNK         0.0000 
     18 N18        46.1711   35.8957   24.2031 N.2       1 UNK         0.0000 
     19 N19        46.8878   37.4312   22.7186 N.pl3     1 UNK         0.0000 
     20 C20        47.8243   36.4333   22.7259 C.ar      1 UNK         0.0000 
     21 N21        48.9772   36.3771   21.9912 N.ar      1 UNK         0.0000 
     22 N22        50.9362   35.2399   21.7355 N.pl3     1 UNK         0.0000 
     23 C23        51.9759   34.4305   22.0489 C.ar      1 UNK         0.0000 
     24 C24        52.8214   33.9663   21.0201 C.ar      1 UNK         0.0000 
     25 H25        45.0353   37.5898   23.7999 H         1 UNK         0.0000 
     26 H26        49.8869   32.6141   24.7846 H         1 UNK         0.0000 
     27 H27        48.6296   31.6849   23.9846 H         1 UNK         0.0000 
     28 H28        47.6196   31.3599   26.3320 H         1 UNK         0.0000 
     29 H29        48.8868   29.5954   25.1962 H         1 UNK         0.0000 
     30 H30        50.4081   30.3036   25.6789 H         1 UNK         0.0000 
     31 H31        48.3028   29.1534   27.5433 H         1 UNK         0.0000 
     32 H32        49.8364   28.3974   27.1566 H         1 UNK         0.0000 
     33 H33        49.9234   29.5544   29.3651 H         1 UNK         0.0000 
     34 H34        51.0400   30.3023   28.2436 H         1 UNK         0.0000 
     35 H35        48.2398   31.3156   28.9588 H         1 UNK         0.0000 
     36 H36        49.7483   32.0457   29.4428 H         1 UNK         0.0000 
     37 H37        50.3065   32.6025   27.1205 H         1 UNK         0.0000 
     38 H38        48.7265   33.2405   27.4982 H         1 UNK         0.0000 
     39 H39        54.5566   32.7798   20.5255 H         1 UNK         0.0000 
     40 H40        53.5935   33.0128   24.7195 H         1 UNK         0.0000 
     41 H41        51.6721   34.4602   24.1997 H         1 UNK         0.0000 
     42 H42        46.9102   38.2663   22.1423 H         1 UNK         0.0000 
     43 H43        51.0817   35.8298   20.9262 H         1 UNK         0.0000 
     44 H44        52.6299   34.2366   19.9926 H         1 UNK         0.0000 
     45 O45        55.2687   31.9939   22.9473 O.3       1 UNK         0.0000 
     46 H46        55.3177   31.8470   23.8795 H         1 UNK         0.0000 
@<TRIPOS>BOND
     1    1   14 ar   
     2    1   21 ar   
     3    1   22 1    
     4    2   18 ar   
     5    2   19 ar   
     6    2   25 1    
     7    3    4 1    
     8    3   16 1    
     9    3   26 1    
    10    3   27 1    
    11    4    5 1    
    12    4    9 1    
    13    4   28 1    
    14    5    6 1    
    15    5   29 1    
    16    5   30 1    
    17    6    7 1    
    18    6   31 1    
    19    6   32 1    
    20    7    8 1    
    21    7   33 1    
    22    7   34 1    
    23    8    9 1    
    24    8   35 1    
    25    8   36 1    
    26    9   37 1    
    27    9   38 1    
    28   10   11 ar   
    29   10   24 ar   
    30   10   39 1    
    31   11   12 ar   
    32   11   45 1    
    33   12   13 ar   
    34   12   40 1    
    35   13   23 ar   
    36   13   41 1    
    37   14   15 ar   
    38   15   16 1    
    39   15   17 ar   
    40   17   18 ar   
    41   17   20 ar   
    42   19   20 ar   
    43   19   42 1    
    44   20   21 ar   
    45   22   23 1    
    46   22   43 1    
    47   23   24 ar   
    48   24   44 1    
    49   45   46 1    
@<TRIPOS>SUBSTRUCTURE
     1 UNK         1 GROUP             0       ****    0 ROOT    
@<TRIPOS>MOLECULE
32
54   57    1
SMALL
USER_CHARGES


@<TRIPOS>ATOM
      1 C1         49.7062   35.2933   22.2815 C.ar      1 UNK         0.0000 
      2 C2         45.9302   37.0257   23.6071 C.ar      1 UNK         0.0000 
      3 C3         48.8379   32.3201   24.8473 C.3       1 UNK         0.0000 
      4 C4         48.6813   31.5331   26.1493 C.3       1 UNK         0.0000 
      5 C5         49.3717   30.1649   25.9895 C.3       1 UNK         0.0000 
      6 C6         49.3394   29.3593   27.2905 C.3       1 UNK         0.0000 
      7 C7         49.9805   30.1374   28.4455 C.3       1 UNK         0.0000 
      8 C8         49.2701   31.4845   28.6409 C.3       1 UNK         0.0000 
      9 C9         49.2789   32.3118   27.3449 C.3       1 UNK         0.0000 
     10 C10        53.3788   33.2677   23.6919 C.ar      1 UNK         0.0000 
     11 C11        54.1950   32.7827   22.6551 C.ar      1 UNK         0.0000 
     12 C12        53.9199   33.1367   21.3208 C.ar      1 UNK         0.0000 
     13 C13        52.8214   33.9663   21.0201 C.ar      1 UNK         0.0000 
     14 N14        49.3575   34.3144   23.1169 N.ar      1 UNK         0.0000 
     15 C15        48.2202   34.3886   23.8394 C.ar      1 UNK         0.0000 
     16 O16        47.9527   33.4370   24.8002 O.3       1 UNK         0.0000 
     17 C17        47.3803   35.5051   23.6436 C.ar      1 UNK         0.0000 
     18 N18        46.1711   35.8957   24.2031 N.2       1 UNK         0.0000 
     19 N19        46.8878   37.4312   22.7186 N.pl3     1 UNK         0.0000 
     20 C20        47.8243   36.4333   22.7259 C.ar      1 UNK         0.0000 
     21 N21        48.9772   36.3771   21.9912 N.ar      1 UNK         0.0000 
     22 N22        50.9362   35.2399   21.7355 N.pl3     1 UNK         0.0000 
     23 C23        51.9759   34.4305   22.0489 C.ar      1 UNK         0.0000 
     24 C24        52.2811   34.0929   23.3887 C.ar      1 UNK         0.0000 
     25 H25        45.0353   37.5898   23.7999 H         1 UNK         0.0000 
     26 H26        49.8869   32.6141   24.7846 H         1 UNK         0.0000 
     27 H27        48.6296   31.6849   23.9846 H         1 UNK         0.0000 
     28 H28        47.6196   31.3599   26.3320 H         1 UNK         0.0000 
     29 H29        48.8868   29.5954   25.1962 H         1 UNK         0.0000 
     30 H30        50.4081   30.3036   25.6789 H         1 UNK         0.0000 
     31 H31        48.3028   29.1534   27.5433 H         1 UNK         0.0000 
     32 H32        49.8364   28.3974   27.1566 H         1 UNK         0.0000 
     33 H33        49.9234   29.5544   29.3651 H         1 UNK         0.0000 
     34 H34        51.0400   30.3023   28.2436 H         1 UNK         0.0000 
     35 H35        48.2398   31.3156   28.9588 H         1 UNK         0.0000 
     36 H36        49.7483   32.0457   29.4428 H         1 UNK         0.0000 
     37 H37        50.3065   32.6025   27.1205 H         1 UNK         0.0000 
     38 H38        48.7265   33.2405   27.4982 H         1 UNK         0.0000 
     39 H39        53.5903   32.9991   24.7158 H         1 UNK         0.0000 
     40 H40        52.6475   34.2395   19.9912 H         1 UNK         0.0000 
     41 H41        46.9102   38.2663   22.1423 H         1 UNK         0.0000 
     42 H42        51.0817   35.8298   20.9262 H         1 UNK         0.0000 
     43 H43        51.6714   34.4767   24.1927 H         1 UNK         0.0000 
     44 S44        55.3390   31.8632   22.9642 S.o2      1 UNK         0.0000 
     45 O45        55.5810   31.9147   24.4010 O.2       1 UNK         0.0000 
     46 O46        55.0977   30.5998   22.2776 O.2       1 UNK         0.0000 
     47 N47        56.7613   32.5124   22.2383 N.pl3     1 UNK         0.0000 
     48 H48        57.3021   33.1938   22.7515 H         1 UNK         0.0000 
     49 H49        56.9664   32.2805   21.2769 H         1 UNK         0.0000 
     50 O50        54.7104   32.6758   20.3092 O.3       1 UNK         0.0000 
     51 C51        54.2410   33.1606   19.0712 C.3       1 UNK         0.0000 
     52 H52        54.8950   32.7775   18.2483 H         1 UNK         0.0000 
     53 H53        53.1912   32.8098   18.9071 H         1 UNK         0.0000 
     54 H54        54.2639   34.2793   19.0757 H         1 UNK         0.0000 
@<TRIPOS>BOND
     1    1   14 ar   
     2    1   21 ar   
     3    1   22 1    
     4    2   18 ar   
     5    2   19 ar   
     6    2   25 1    
     7    3    4 1    
     8    3   16 1    
     9    3   26 1    
    10    3   27 1    
    11    4    5 1    
    12    4    9 1    
    13    4   28 1    
    14    5    6 1    
    15    5   29 1    
    16    5   30 1    
    17    6    7 1    
    18    6   31 1    
    19    6   32 1    
    20    7    8 1    
    21    7   33 1    
    22    7   34 1    
    23    8    9 1    
    24    8   35 1    
    25    8   36 1    
    26    9   37 1    
    27    9   38 1    
    28   10   11 ar   
    29   10   24 ar   
    30   10   39 1    
    31   11   12 ar   
    32   11   44 1    
    33   12   13 ar   
    34   12   50 1    
    35   13   23 ar   
    36   13   40 1    
    37   14   15 ar   
    38   15   16 1    
    39   15   17 ar   
    40   17   18 ar   
    41   17   20 ar   
    42   19   20 ar   
    43   19   41 1    
    44   20   21 ar   
    45   22   23 1    
    46   22   42 1    
    47   23   24 ar   
    48   24   43 1    
    49   44   45 2    
    50   44   46 2    
    51   44   47 1    
    52   47   49 1    
    53   47   48 1    
    54   50   51 1    
    55   51   52 1    
    56   51   53 1    
    57   51   54 1    
@<TRIPOS>SUBSTRUCTURE
     1 UNK         1 GROUP             0       ****    0 ROOT    
@<TRIPOS>MOLECULE
1oiu
50   53    1
SMALL
USER_CHARGES


@<TRIPOS>ATOM
      1 C1         49.7062   35.2933   22.2815 C.ar      1 UNK         0.0000 
      2 C2         45.9302   37.0257   23.6071 C.ar      1 UNK         0.0000 
      3 C3         48.8379   32.3201   24.8473 C.3       1 UNK         0.0000 
      4 C4         48.6813   31.5331   26.1493 C.3       1 UNK         0.0000 
      5 C5         49.3717   30.1649   25.9895 C.3       1 UNK         0.0000 
      6 C6         49.3394   29.3593   27.2905 C.3       1 UNK         0.0000 
      7 C7         49.9805   30.1374   28.4455 C.3       1 UNK         0.0000 
      8 C8         49.2701   31.4845   28.6409 C.3       1 UNK         0.0000 
      9 C9         49.2789   32.3118   27.3449 C.3       1 UNK         0.0000 
     10 C10        53.9199   33.1367   21.3208 C.ar      1 UNK         0.0000 
     11 C11        54.1950   32.7827   22.6551 C.ar      1 UNK         0.0000 
     12 C12        53.3788   33.2677   23.6919 C.ar      1 UNK         0.0000 
     13 C13        52.2811   34.0929   23.3887 C.ar      1 UNK         0.0000 
     14 N14        49.3575   34.3144   23.1169 N.ar      1 UNK         0.0000 
     15 C15        48.2202   34.3886   23.8394 C.ar      1 UNK         0.0000 
     16 O16        47.9527   33.4370   24.8002 O.3       1 UNK         0.0000 
     17 C17        47.3803   35.5051   23.6436 C.ar      1 UNK         0.0000 
     18 N18        46.1711   35.8957   24.2031 N.2       1 UNK         0.0000 
     19 N19        46.8878   37.4312   22.7186 N.pl3     1 UNK         0.0000 
     20 C20        47.8243   36.4333   22.7259 C.ar      1 UNK         0.0000 
     21 N21        48.9772   36.3771   21.9912 N.ar      1 UNK         0.0000 
     22 N22        50.9362   35.2399   21.7355 N.pl3     1 UNK         0.0000 
     23 C23        51.9759   34.4305   22.0489 C.ar      1 UNK         0.0000 
     24 C24        52.8214   33.9663   21.0201 C.ar      1 UNK         0.0000 
     25 H25        45.0353   37.5898   23.7999 H         1 UNK         0.0000 
     26 H26        49.8869   32.6141   24.7846 H         1 UNK         0.0000 
     27 H27        48.6296   31.6849   23.9846 H         1 UNK         0.0000 
     28 H28        47.6196   31.3599   26.3320 H         1 UNK         0.0000 
     29 H29        48.8868   29.5954   25.1962 H         1 UNK         0.0000 
     30 H30        50.4081   30.3036   25.6789 H         1 UNK         0.0000 
     31 H31        48.3028   29.1534   27.5433 H         1 UNK         0.0000 
     32 H32        49.8364   28.3974   27.1566 H         1 UNK         0.0000 
     33 H33        49.9234   29.5544   29.3651 H         1 UNK         0.0000 
     34 H34        51.0400   30.3023   28.2436 H         1 UNK         0.0000 
     35 H35        48.2398   31.3156   28.9588 H         1 UNK         0.0000 
     36 H36        49.7483   32.0457   29.4428 H         1 UNK         0.0000 
     37 H37        50.3065   32.6025   27.1205 H         1 UNK         0.0000 
     38 H38        48.7265   33.2405   27.4982 H         1 UNK         0.0000 
     39 H39        55.0442   32.1588   22.8862 H         1 UNK         0.0000 
     40 H40        53.5935   33.0128   24.7195 H         1 UNK         0.0000 
     41 H41        51.6721   34.4602   24.1997 H         1 UNK         0.0000 
     42 H42        46.9102   38.2663   22.1423 H         1 UNK         0.0000 
     43 H43        51.0817   35.8298   20.9262 H         1 UNK         0.0000 
     44 H44        52.6299   34.2366   19.9926 H         1 UNK         0.0000 
     45 S45        54.8045   32.6407   20.2157 S.o2      1 UNK         0.0000 
     46 O46        54.7001   31.1871   20.1752 O.2       1 UNK         0.0000 
     47 O47        54.5472   33.4557   19.0345 O.2       1 UNK         0.0000 
     48 N48        56.4404   32.9687   20.6488 N.pl3     1 UNK         0.0000 
     49 H49        56.9388   32.2957   21.2135 H         1 UNK         0.0000 
     50 H50        56.8326   33.8713   20.4213 H         1 UNK         0.0000 
@<TRIPOS>BOND
     1    1   14 ar   
     2    1   21 ar   
     3    1   22 1    
     4    2   18 ar   
     5    2   19 ar   
     6    2   25 1    
     7    3    4 1    
     8    3   16 1    
     9    3   26 1    
    10    3   27 1    
    11    4    5 1    
    12    4    9 1    
    13    4   28 1    
    14    5    6 1    
    15    5   29 1    
    16    5   30 1    
    17    6    7 1    
    18    6   31 1    
    19    6   32 1    
    20    7    8 1    
    21    7   33 1    
    22    7   34 1    
    23    8    9 1    
    24    8   35 1    
    25    8   36 1    
    26    9   37 1    
    27    9   38 1    
    28   10   11 ar   
    29   10   24 ar   
    30   10   45 1    
    31   11   12 ar   
    32   11   39 1    
    33   12   13 ar   
    34   12   40 1    
    35   13   23 ar   
    36   13   41 1    
    37   14   15 ar   
    38   15   16 1    
    39   15   17 ar   
    40   17   18 ar   
    41   17   20 ar   
    42   19   20 ar   
    43   19   42 1    
    44   20   21 ar   
    45   22   23 1    
    46   22   43 1    
    47   23   24 ar   
    48   24   44 1    
    49   45   46 2    
    50   45   47 2    
    51   45   48 1    
    52   48   49 1    
    53   48   50 1    
@<TRIPOS>SUBSTRUCTURE
     1 UNK         1 GROUP             0       ****    0 ROOT    
@<TRIPOS>MOLECULE
29
56   59    1
SMALL
USER_CHARGES


@<TRIPOS>ATOM
      1 C1         49.7062   35.2933   22.2815 C.ar      1 UNK         0.0000 
      2 C2         45.9302   37.0257   23.6071 C.ar      1 UNK         0.0000 
      3 C3         48.8379   32.3201   24.8473 C.3       1 UNK         0.0000 
      4 C4         48.6813   31.5331   26.1493 C.3       1 UNK         0.0000 
      5 C5         49.3717   30.1649   25.9895 C.3       1 UNK         0.0000 
      6 C6         49.3394   29.3593   27.2905 C.3       1 UNK         0.0000 
      7 C7         49.9805   30.1374   28.4455 C.3       1 UNK         0.0000 
      8 C8         49.2701   31.4845   28.6409 C.3       1 UNK         0.0000 
      9 C9         49.2789   32.3118   27.3449 C.3       1 UNK         0.0000 
     10 C10        53.9199   33.1367   21.3208 C.ar      1 UNK         0.0000 
     11 C11        54.1950   32.7827   22.6551 C.ar      1 UNK         0.0000 
     12 C12        53.3788   33.2677   23.6919 C.ar      1 UNK         0.0000 
     13 C13        52.2811   34.0929   23.3887 C.ar      1 UNK         0.0000 
     14 N14        49.3575   34.3144   23.1169 N.ar      1 UNK         0.0000 
     15 C15        48.2202   34.3886   23.8394 C.ar      1 UNK         0.0000 
     16 O16        47.9527   33.4370   24.8002 O.3       1 UNK         0.0000 
     17 C17        47.3803   35.5051   23.6436 C.ar      1 UNK         0.0000 
     18 N18        46.1711   35.8957   24.2031 N.2       1 UNK         0.0000 
     19 N19        46.8878   37.4312   22.7186 N.pl3     1 UNK         0.0000 
     20 C20        47.8243   36.4333   22.7259 C.ar      1 UNK         0.0000 
     21 N21        48.9772   36.3771   21.9912 N.ar      1 UNK         0.0000 
     22 N22        50.9362   35.2399   21.7355 N.pl3     1 UNK         0.0000 
     23 C23        51.9759   34.4305   22.0489 C.ar      1 UNK         0.0000 
     24 C24        52.8214   33.9663   21.0201 C.ar      1 UNK         0.0000 
     25 H25        45.0353   37.5898   23.7999 H         1 UNK         0.0000 
     26 H26        49.8869   32.6141   24.7846 H         1 UNK         0.0000 
     27 H27        48.6296   31.6849   23.9846 H         1 UNK         0.0000 
     28 H28        47.6196   31.3599   26.3320 H         1 UNK         0.0000 
     29 H29        48.8868   29.5954   25.1962 H         1 UNK         0.0000 
     30 H30        50.4081   30.3036   25.6789 H         1 UNK         0.0000 
     31 H31        48.3028   29.1534   27.5433 H         1 UNK         0.0000 
     32 H32        49.8364   28.3974   27.1566 H         1 UNK         0.0000 
     33 H33        49.9234   29.5544   29.3651 H         1 UNK         0.0000 
     34 H34        51.0400   30.3023   28.2436 H         1 UNK         0.0000 
     35 H35        48.2398   31.3156   28.9588 H         1 UNK         0.0000 
     36 H36        49.7483   32.0457   29.4428 H         1 UNK         0.0000 
     37 H37        50.3065   32.6025   27.1205 H         1 UNK         0.0000 
     38 H38        48.7265   33.2405   27.4982 H         1 UNK         0.0000 
     39 H39        54.5566   32.7798   20.5255 H         1 UNK         0.0000 
     40 H40        53.5935   33.0128   24.7195 H         1 UNK         0.0000 
     41 H41        51.6721   34.4602   24.1997 H         1 UNK         0.0000 
     42 H42        46.9102   38.2663   22.1423 H         1 UNK         0.0000 
     43 H43        51.0817   35.8298   20.9262 H         1 UNK         0.0000 
     44 H44        52.6299   34.2366   19.9926 H         1 UNK         0.0000 
     45 S45        55.3757   31.9153   22.9764 S.o2      1 UNK         0.0000 
     46 O46        55.8451   31.3170   21.7325 O.2       1 UNK         0.0000 
     47 O47        56.2703   32.6766   23.8401 O.2       1 UNK         0.0000 
     48 N48        54.8977   30.7664   23.8141 N.pl3     1 UNK         0.0000 
     49 C49        54.6117   29.4880   23.1948 C.3       1 UNK         0.0000 
     50 H50        54.8060   29.5546   22.0949 H         1 UNK         0.0000 
     51 H51        55.2691   28.7012   23.6427 H         1 UNK         0.0000 
     52 H52        53.5391   29.2211   23.3685 H         1 UNK         0.0000 
     53 C53        54.7220   30.9350   25.2424 C.3       1 UNK         0.0000 
     54 H54        54.3625   29.9745   25.6899 H         1 UNK         0.0000 
     55 H55        55.6990   31.2203   25.7073 H         1 UNK         0.0000 
     56 H56        53.9689   31.7403   25.4331 H         1 UNK         0.0000 
@<TRIPOS>BOND
     1    1   14 ar   
     2    1   21 ar   
     3    1   22 1    
     4    2   18 ar   
     5    2   19 ar   
     6    2   25 1    
     7    3    4 1    
     8    3   16 1    
     9    3   26 1    
    10    3   27 1    
    11    4    5 1    
    12    4    9 1    
    13    4   28 1    
    14    5    6 1    
    15    5   29 1    
    16    5   30 1    
    17    6    7 1    
    18    6   31 1    
    19    6   32 1    
    20    7    8 1    
    21    7   33 1    
    22    7   34 1    
    23    8    9 1    
    24    8   35 1    
    25    8   36 1    
    26    9   37 1    
    27    9   38 1    
    28   10   11 ar   
    29   10   24 ar   
    30   10   39 1    
    31   11   12 ar   
    32   11   45 1    
    33   12   13 ar   
    34   12   40 1    
    35   13   23 ar   
    36   13   41 1    
    37   14   15 ar   
    38   15   16 1    
    39   15   17 ar   
    40   17   18 ar   
    41   17   20 ar   
    42   19   20 ar   
    43   19   42 1    
    44   20   21 ar   
    45   22   23 1    
    46   22   43 1    
    47   23   24 ar   
    48   24   44 1    
    49   45   46 2    
    50   45   47 2    
    51   45   48 1    
    52   48   49 1    
    53   48   53 1    
    54   49   50 1    
    55   49   51 1    
    56   49   52 1    
    57   53   54 1    
    58   53   55 1    
    59   53   56 1    
@<TRIPOS>SUBSTRUCTURE
     1 UNK         1 GROUP             0       ****    0 ROOT    
@<TRIPOS>MOLECULE
1h1r
45   48    1
SMALL
USER_CHARGES


@<TRIPOS>ATOM
      1 C1         49.7062   35.2933   22.2815 C.ar      1 UNK         0.0000 
      2 C2         45.9302   37.0257   23.6071 C.ar      1 UNK         0.0000 
      3 C3         48.8379   32.3201   24.8473 C.3       1 UNK         0.0000 
      4 C4         48.6813   31.5331   26.1493 C.3       1 UNK         0.0000 
      5 C5         49.3717   30.1649   25.9895 C.3       1 UNK         0.0000 
      6 C6         49.3394   29.3593   27.2905 C.3       1 UNK         0.0000 
      7 C7         49.9805   30.1374   28.4455 C.3       1 UNK         0.0000 
      8 C8         49.2701   31.4845   28.6409 C.3       1 UNK         0.0000 
      9 C9         49.2789   32.3118   27.3449 C.3       1 UNK         0.0000 
     10 C10        53.3788   33.2677   23.6919 C.ar      1 UNK         0.0000 
     11 C11        54.1950   32.7827   22.6551 C.ar      1 UNK         0.0000 
     12 C12        53.9199   33.1367   21.3208 C.ar      1 UNK         0.0000 
     13 C13        52.8214   33.9663   21.0201 C.ar      1 UNK         0.0000 
     14 N14        49.3575   34.3144   23.1169 N.ar      1 UNK         0.0000 
     15 C15        48.2202   34.3886   23.8394 C.ar      1 UNK         0.0000 
     16 O16        47.9527   33.4370   24.8002 O.3       1 UNK         0.0000 
     17 C17        47.3803   35.5051   23.6436 C.ar      1 UNK         0.0000 
     18 N18        46.1711   35.8957   24.2031 N.2       1 UNK         0.0000 
     19 N19        46.8878   37.4312   22.7186 N.pl3     1 UNK         0.0000 
     20 C20        47.8243   36.4333   22.7259 C.ar      1 UNK         0.0000 
     21 N21        48.9772   36.3771   21.9912 N.ar      1 UNK         0.0000 
     22 N22        50.9362   35.2399   21.7355 N.pl3     1 UNK         0.0000 
     23 C23        51.9759   34.4305   22.0489 C.ar      1 UNK         0.0000 
     24 C24        52.2811   34.0929   23.3887 C.ar      1 UNK         0.0000 
     25 H25        45.0353   37.5898   23.7999 H         1 UNK         0.0000 
     26 H26        49.8869   32.6141   24.7846 H         1 UNK         0.0000 
     27 H27        48.6296   31.6849   23.9846 H         1 UNK         0.0000 
     28 H28        47.6196   31.3599   26.3320 H         1 UNK         0.0000 
     29 H29        48.8868   29.5954   25.1962 H         1 UNK         0.0000 
     30 H30        50.4081   30.3036   25.6789 H         1 UNK         0.0000 
     31 H31        48.3028   29.1534   27.5433 H         1 UNK         0.0000 
     32 H32        49.8364   28.3974   27.1566 H         1 UNK         0.0000 
     33 H33        49.9234   29.5544   29.3651 H         1 UNK         0.0000 
     34 H34        51.0400   30.3023   28.2436 H         1 UNK         0.0000 
     35 H35        48.2398   31.3156   28.9588 H         1 UNK         0.0000 
     36 H36        49.7483   32.0457   29.4428 H         1 UNK         0.0000 
     37 H37        50.3065   32.6025   27.1205 H         1 UNK         0.0000 
     38 H38        48.7265   33.2405   27.4982 H         1 UNK         0.0000 
     39 H39        53.5903   32.9991   24.7158 H         1 UNK         0.0000 
     40 H40        55.0178   32.1214   22.8774 H         1 UNK         0.0000 
     41 H41        52.6475   34.2395   19.9912 H         1 UNK         0.0000 
     42 H42        46.9102   38.2663   22.1423 H         1 UNK         0.0000 
     43 H43        51.0817   35.8298   20.9262 H         1 UNK         0.0000 
     44 H44        51.6714   34.4767   24.1927 H         1 UNK         0.0000 
     45 Cl45       54.9225   32.5522   20.0378 Cl        1 UNK         0.0000 
@<TRIPOS>BOND
     1    1   14 ar   
     2    1   21 ar   
     3    1   22 1    
     4    2   18 ar   
     5    2   19 ar   
     6    2   25 1    
     7    3    4 1    
     8    3   16 1    
     9    3   26 1    
    10    3   27 1    
    11    4    5 1    
    12    4    9 1    
    13    4   28 1    
    14    5    6 1    
    15    5   29 1    
    16    5   30 1    
    17    6    7 1    
    18    6   31 1    
    19    6   32 1    
    20    7    8 1    
    21    7   33 1    
    22    7   34 1    
    23    8    9 1    
    24    8   35 1    
    25    8   36 1    
    26    9   37 1    
    27    9   38 1    
    28   10   11 ar   
    29   10   24 ar   
    30   10   39 1    
    31   11   12 ar   
    32   11   40 1    
    33   12   13 ar   
    34   12   45 1    
    35   13   23 ar   
    36   13   41 1    
    37   14   15 ar   
    38   15   16 1    
    39   15   17 ar   
    40   17   18 ar   
    41   17   20 ar   
    42   19   20 ar   
    43   19   42 1    
    44   20   21 ar   
    45   22   23 1    
    46   22   43 1    
    47   23   24 ar   
    48   24   44 1    
@<TRIPOS>SUBSTRUCTURE
     1 UNK         1 GROUP             0       ****    0 ROOT    
@<TRIPOS>MOLECULE
21
49   52    1
SMALL
USER_CHARGES


@<TRIPOS>ATOM
      1 C1         49.7062   35.2933   22.2815 C.ar      1 UNK         0.0000 
      2 C2         45.9302   37.0257   23.6071 C.ar      1 UNK         0.0000 
      3 C3         48.8379   32.3201   24.8473 C.3       1 UNK         0.0000 
      4 C4         48.6813   31.5331   26.1493 C.3       1 UNK         0.0000 
      5 C5         49.3717   30.1649   25.9895 C.3       1 UNK         0.0000 
      6 C6         49.3394   29.3593   27.2905 C.3       1 UNK         0.0000 
      7 C7         49.9805   30.1374   28.4455 C.3       1 UNK         0.0000 
      8 C8         49.2701   31.4845   28.6409 C.3       1 UNK         0.0000 
      9 C9         49.2789   32.3118   27.3449 C.3       1 UNK         0.0000 
     10 C10        53.3788   33.2677   23.6919 C.ar      1 UNK         0.0000 
     11 C11        54.1950   32.7827   22.6551 C.ar      1 UNK         0.0000 
     12 C12        53.9199   33.1367   21.3208 C.ar      1 UNK         0.0000 
     13 C13        52.8214   33.9663   21.0201 C.ar      1 UNK         0.0000 
     14 N14        49.3575   34.3144   23.1169 N.ar      1 UNK         0.0000 
     15 C15        48.2202   34.3886   23.8394 C.ar      1 UNK         0.0000 
     16 O16        47.9527   33.4370   24.8002 O.3       1 UNK         0.0000 
     17 C17        47.3803   35.5051   23.6436 C.ar      1 UNK         0.0000 
     18 N18        46.1711   35.8957   24.2031 N.2       1 UNK         0.0000 
     19 N19        46.8878   37.4312   22.7186 N.pl3     1 UNK         0.0000 
     20 C20        47.8243   36.4333   22.7259 C.ar      1 UNK         0.0000 
     21 N21        48.9772   36.3771   21.9912 N.ar      1 UNK         0.0000 
     22 N22        50.9362   35.2399   21.7355 N.pl3     1 UNK         0.0000 
     23 C23        51.9759   34.4305   22.0489 C.ar      1 UNK         0.0000 
     24 C24        52.2811   34.0929   23.3887 C.ar      1 UNK         0.0000 
     25 H25        45.0353   37.5898   23.7999 H         1 UNK         0.0000 
     26 H26        49.8869   32.6141   24.7846 H         1 UNK         0.0000 
     27 H27        48.6296   31.6849   23.9846 H         1 UNK         0.0000 
     28 H28        47.6196   31.3599   26.3320 H         1 UNK         0.0000 
     29 H29        48.8868   29.5954   25.1962 H         1 UNK         0.0000 
     30 H30        50.4081   30.3036   25.6789 H         1 UNK         0.0000 
     31 H31        48.3028   29.1534   27.5433 H         1 UNK         0.0000 
     32 H32        49.8364   28.3974   27.1566 H         1 UNK         0.0000 
     33 H33        49.9234   29.5544   29.3651 H         1 UNK         0.0000 
     34 H34        51.0400   30.3023   28.2436 H         1 UNK         0.0000 
     35 H35        48.2398   31.3156   28.9588 H         1 UNK         0.0000 
     36 H36        49.7483   32.0457   29.4428 H         1 UNK         0.0000 
     37 H37        50.3065   32.6025   27.1205 H         1 UNK         0.0000 
     38 H38        48.7265   33.2405   27.4982 H         1 UNK         0.0000 
     39 H39        53.5903   32.9991   24.7158 H         1 UNK         0.0000 
     40 H40        55.0178   32.1214   22.8774 H         1 UNK         0.0000 
     41 H41        52.6475   34.2395   19.9912 H         1 UNK         0.0000 
     42 H42        46.9102   38.2663   22.1423 H         1 UNK         0.0000 
     43 H43        51.0817   35.8298   20.9262 H         1 UNK         0.0000 
     44 H44        51.6714   34.4767   24.1927 H         1 UNK         0.0000 
     45 O45        54.7104   32.6758   20.3092 O.3       1 UNK         0.0000 
     46 C46        54.2410   33.1606   19.0712 C.3       1 UNK         0.0000 
     47 H47        54.8950   32.7775   18.2483 H         1 UNK         0.0000 
     48 H48        53.1912   32.8098   18.9071 H         1 UNK         0.0000 
     49 H49        54.2639   34.2793   19.0757 H         1 UNK         0.0000 
@<TRIPOS>BOND
     1    1   14 ar   
     2    1   21 ar   
     3    1   22 1    
     4    2   18 ar   
     5    2   19 ar   
     6    2   25 1    
     7    3    4 1    
     8    3   16 1    
     9    3   26 1    
    10    3   27 1    
    11    4    5 1    
    12    4    9 1    
    13    4   28 1    
    14    5    6 1    
    15    5   29 1    
    16    5   30 1    
    17    6    7 1    
    18    6   31 1    
    19    6   32 1    
    20    7    8 1    
    21    7   33 1    
    22    7   34 1    
    23    8    9 1    
    24    8   35 1    
    25    8   36 1    
    26    9   37 1    
    27    9   38 1    
    28   10   11 ar   
    29   10   24 ar   
    30   10   39 1    
    31   11   12 ar   
    32   11   40 1    
    33   12   13 ar   
    34   12   45 1    
    35   13   23 ar   
    36   13   41 1    
    37   14   15 ar   
    38   15   16 1    
    39   15   17 ar   
    40   17   18 ar   
    41   17   20 ar   
    42   19   20 ar   
    43   19   42 1    
    44   20   21 ar   
    45   22   23 1    
    46   22   43 1    
    47   23   24 ar   
    48   24   44 1    
    49   45   46 1    
    50   46   47 1    
    51   46   48 1    
    52   46   49 1    
@<TRIPOS>SUBSTRUCTURE
     1 UNK         1 GROUP             0       ****    0 ROOT    
@<TRIPOS>MOLECULE
26
49   52    1
SMALL
USER_CHARGES


@<TRIPOS>ATOM
      1 C1         49.7062   35.2933   22.2815 C.ar      1 UNK         0.0000 
      2 C2         45.9302   37.0257   23.6071 C.ar      1 UNK         0.0000 
      3 C3         48.8379   32.3201   24.8473 C.3       1 UNK         0.0000 
      4 C4         48.6813   31.5331   26.1493 C.3       1 UNK         0.0000 
      5 C5         49.3717   30.1649   25.9895 C.3       1 UNK         0.0000 
      6 C6         49.3394   29.3593   27.2905 C.3       1 UNK         0.0000 
      7 C7         49.9805   30.1374   28.4455 C.3       1 UNK         0.0000 
      8 C8         49.2701   31.4845   28.6409 C.3       1 UNK         0.0000 
      9 C9         49.2789   32.3118   27.3449 C.3       1 UNK         0.0000 
     10 C10        53.9199   33.1367   21.3208 C.ar      1 UNK         0.0000 
     11 C11        54.1950   32.7827   22.6551 C.ar      1 UNK         0.0000 
     12 C12        53.3788   33.2677   23.6919 C.ar      1 UNK         0.0000 
     13 C13        52.2811   34.0929   23.3887 C.ar      1 UNK         0.0000 
     14 N14        49.3575   34.3144   23.1169 N.ar      1 UNK         0.0000 
     15 C15        48.2202   34.3886   23.8394 C.ar      1 UNK         0.0000 
     16 O16        47.9527   33.4370   24.8002 O.3       1 UNK         0.0000 
     17 C17        47.3803   35.5051   23.6436 C.ar      1 UNK         0.0000 
     18 N18        46.1711   35.8957   24.2031 N.2       1 UNK         0.0000 
     19 N19        46.8878   37.4312   22.7186 N.pl3     1 UNK         0.0000 
     20 C20        47.8243   36.4333   22.7259 C.ar      1 UNK         0.0000 
     21 N21        48.9772   36.3771   21.9912 N.ar      1 UNK         0.0000 
     22 N22        50.9362   35.2399   21.7355 N.pl3     1 UNK         0.0000 
     23 C23        51.9759   34.4305   22.0489 C.ar      1 UNK         0.0000 
     24 C24        52.8214   33.9663   21.0201 C.ar      1 UNK         0.0000 
     25 H25        45.0353   37.5898   23.7999 H         1 UNK         0.0000 
     26 H26        49.8869   32.6141   24.7846 H         1 UNK         0.0000 
     27 H27        48.6296   31.6849   23.9846 H         1 UNK         0.0000 
     28 H28        47.6196   31.3599   26.3320 H         1 UNK         0.0000 
     29 H29        48.8868   29.5954   25.1962 H         1 UNK         0.0000 
     30 H30        50.4081   30.3036   25.6789 H         1 UNK         0.0000 
     31 H31        48.3028   29.1534   27.5433 H         1 UNK         0.0000 
     32 H32        49.8364   28.3974   27.1566 H         1 UNK         0.0000 
     33 H33        49.9234   29.5544   29.3651 H         1 UNK         0.0000 
     34 H34        51.0400   30.3023   28.2436 H         1 UNK         0.0000 
     35 H35        48.2398   31.3156   28.9588 H         1 UNK         0.0000 
     36 H36        49.7483   32.0457   29.4428 H         1 UNK         0.0000 
     37 H37        50.3065   32.6025   27.1205 H         1 UNK         0.0000 
     38 H38        48.7265   33.2405   27.4982 H         1 UNK         0.0000 
     39 H39        54.5566   32.7798   20.5255 H         1 UNK         0.0000 
     40 H40        53.5935   33.0128   24.7195 H         1 UNK         0.0000 
     41 H41        51.6721   34.4602   24.1997 H         1 UNK         0.0000 
     42 H42        46.9102   38.2663   22.1423 H         1 UNK         0.0000 
     43 H43        51.0817   35.8298   20.9262 H         1 UNK         0.0000 
     44 H44        52.6299   34.2366   19.9926 H         1 UNK         0.0000 
     45 O45        55.2687   31.9939   22.9473 O.3       1 UNK         0.0000 
     46 C46        55.3418   31.7747   24.3382 C.3       1 UNK         0.0000 
     47 H47        56.2250   31.1273   24.5679 H         1 UNK         0.0000 
     48 H48        55.4514   32.7556   24.8652 H         1 UNK         0.0000 
     49 H49        54.4070   31.2672   24.6854 H         1 UNK         0.0000 
@<TRIPOS>BOND
     1    1   14 ar   
     2    1   21 ar   
     3    1   22 1    
     4    2   18 ar   
     5    2   19 ar   
     6    2   25 1    
     7    3    4 1    
     8    3   16 1    
     9    3   26 1    
    10    3   27 1    
    11    4    5 1    
    12    4    9 1    
    13    4   28 1    
    14    5    6 1    
    15    5   29 1    
    16    5   30 1    
    17    6    7 1    
    18    6   31 1    
    19    6   32 1    
    20    7    8 1    
    21    7   33 1    
    22    7   34 1    
    23    8    9 1    
    24    8   35 1    
    25    8   36 1    
    26    9   37 1    
    27    9   38 1    
    28   10   11 ar   
    29   10   24 ar   
    30   10   39 1    
    31   11   12 ar   
    32   11   45 1    
    33   12   13 ar   
    34   12   40 1    
    35   13   23 ar   
    36   13   41 1    
    37   14   15 ar   
    38   15   16 1    
    39   15   17 ar   
    40   17   18 ar   
    41   17   20 ar   
    42   19   20 ar   
    43   19   42 1    
    44   20   21 ar   
    45   22   23 1    
    46   22   43 1    
    47   23   24 ar   
    48   24   44 1    
    49   45   46 1    
    50   46   47 1    
    51   46   48 1    
    52   46   49 1    
@<TRIPOS>SUBSTRUCTURE
     1 UNK         1 GROUP             0       ****    0 ROOT    
@<TRIPOS>MOLECULE
1h1s
50   53    1
SMALL
USER_CHARGES


@<TRIPOS>ATOM
      1 C1         49.7062   35.2933   22.2815 C.ar      1 UNK         0.0000 
      2 C2         45.9302   37.0257   23.6071 C.ar      1 UNK         0.0000 
      3 C3         48.8379   32.3201   24.8473 C.3       1 UNK         0.0000 
      4 C4         48.6813   31.5331   26.1493 C.3       1 UNK         0.0000 
      5 C5         49.3717   30.1649   25.9895 C.3       1 UNK         0.0000 
      6 C6         49.3394   29.3593   27.2905 C.3       1 UNK         0.0000 
      7 C7         49.9805   30.1374   28.4455 C.3       1 UNK         0.0000 
      8 C8         49.2701   31.4845   28.6409 C.3       1 UNK         0.0000 
      9 C9         49.2789   32.3118   27.3449 C.3       1 UNK         0.0000 
     10 C10        53.9199   33.1367   21.3208 C.ar      1 UNK         0.0000 
     11 C11        54.1950   32.7827   22.6551 C.ar      1 UNK         0.0000 
     12 C12        53.3788   33.2677   23.6919 C.ar      1 UNK         0.0000 
     13 C13        52.2811   34.0929   23.3887 C.ar      1 UNK         0.0000 
     14 N14        49.3575   34.3144   23.1169 N.ar      1 UNK         0.0000 
     15 C15        48.2202   34.3886   23.8394 C.ar      1 UNK         0.0000 
     16 O16        47.9527   33.4370   24.8002 O.3       1 UNK         0.0000 
     17 C17        47.3803   35.5051   23.6436 C.ar      1 UNK         0.0000 
     18 N18        46.1711   35.8957   24.2031 N.2       1 UNK         0.0000 
     19 N19        46.8878   37.4312   22.7186 N.pl3     1 UNK         0.0000 
     20 C20        47.8243   36.4333   22.7259 C.ar      1 UNK         0.0000 
     21 N21        48.9772   36.3771   21.9912 N.ar      1 UNK         0.0000 
     22 N22        50.9362   35.2399   21.7355 N.pl3     1 UNK         0.0000 
     23 C23        51.9759   34.4305   22.0489 C.ar      1 UNK         0.0000 
     24 C24        52.8214   33.9663   21.0201 C.ar      1 UNK         0.0000 
     25 H25        45.0353   37.5898   23.7999 H         1 UNK         0.0000 
     26 H26        49.8869   32.6141   24.7846 H         1 UNK         0.0000 
     27 H27        48.6296   31.6849   23.9846 H         1 UNK         0.0000 
     28 H28        47.6196   31.3599   26.3320 H         1 UNK         0.0000 
     29 H29        48.8868   29.5954   25.1962 H         1 UNK         0.0000 
     30 H30        50.4081   30.3036   25.6789 H         1 UNK         0.0000 
     31 H31        48.3028   29.1534   27.5433 H         1 UNK         0.0000 
     32 H32        49.8364   28.3974   27.1566 H         1 UNK         0.0000 
     33 H33        49.9234   29.5544   29.3651 H         1 UNK         0.0000 
     34 H34        51.0400   30.3023   28.2436 H         1 UNK         0.0000 
     35 H35        48.2398   31.3156   28.9588 H         1 UNK         0.0000 
     36 H36        49.7483   32.0457   29.4428 H         1 UNK         0.0000 
     37 H37        50.3065   32.6025   27.1205 H         1 UNK         0.0000 
     38 H38        48.7265   33.2405   27.4982 H         1 UNK         0.0000 
     39 H39        54.5566   32.7798   20.5255 H         1 UNK         0.0000 
     40 H40        53.5935   33.0128   24.7195 H         1 UNK         0.0000 
     41 H41        51.6721   34.4602   24.1997 H         1 UNK         0.0000 
     42 H42        46.9102   38.2663   22.1423 H         1 UNK         0.0000 
     43 H43        51.0817   35.8298   20.9262 H         1 UNK         0.0000 
     44 H44        52.6299   34.2366   19.9926 H         1 UNK         0.0000 
     45 S45        55.3757   31.9153   22.9764 S.o2      1 UNK         0.0000 
     46 O46        55.8451   31.3170   21.7325 O.2       1 UNK         0.0000 
     47 O47        56.2703   32.6766   23.8401 O.2       1 UNK         0.0000 
     48 N48        54.8264   30.5951   23.9390 N.pl3     1 UNK         0.0000 
     49 H49        54.4733   29.7694   23.4767 H         1 UNK         0.0000 
     50 H50        54.7687   30.7137   24.9403 H         1 UNK         0.0000 
@<TRIPOS>BOND
     1    1   14 ar   
     2    1   21 ar   
     3    1   22 1    
     4    2   18 ar   
     5    2   19 ar   
     6    2   25 1    
     7    3    4 1    
     8    3   16 1    
     9    3   26 1    
    10    3   27 1    
    11    4    5 1    
    12    4    9 1    
    13    4   28 1    
    14    5    6 1    
    15    5   29 1    
    16    5   30 1    
    17    6    7 1    
    18    6   31 1    
    19    6   32 1    
    20    7    8 1    
    21    7   33 1    
    22    7   34 1    
    23    8    9 1    
    24    8   35 1    
    25    8   36 1    
    26    9   37 1    
    27    9   38 1    
    28   10   11 ar   
    29   10   24 ar   
    30   10   39 1    
    31   11   12 ar   
    32   11   45 1    
    33   12   13 ar   
    34   12   40 1    
    35   13   23 ar   
    36   13   41 1    
    37   14   15 ar   
    38   15   16 1    
    39   15   17 ar   
    40   17   18 ar   
    41   17   20 ar   
    42   19   20 ar   
    43   19   42 1    
    44   20   21 ar   
    45   22   23 1    
    46   22   43 1    
    47   23   24 ar   
    48   24   44 1    
    49   45   46 2    
    50   45   47 2    
    51   45   48 1    
    52   48   49 1    
    53   48   50 1    
@<TRIPOS>SUBSTRUCTURE
     1 UNK         1 GROUP             0       ****    0 ROOT    
@<TRIPOS>MOLECULE
31
50   53    1
SMALL
USER_CHARGES


@<TRIPOS>ATOM
      1 C1         49.7062   35.2933   22.2815 C.ar      1 UNK         0.0000 
      2 C2         45.9302   37.0257   23.6071 C.ar      1 UNK         0.0000 
      3 C3         48.8379   32.3201   24.8473 C.3       1 UNK         0.0000 
      4 C4         48.6813   31.5331   26.1493 C.3       1 UNK         0.0000 
      5 C5         49.3717   30.1649   25.9895 C.3       1 UNK         0.0000 
      6 C6         49.3394   29.3593   27.2905 C.3       1 UNK         0.0000 
      7 C7         49.9805   30.1374   28.4455 C.3       1 UNK         0.0000 
      8 C8         49.2701   31.4845   28.6409 C.3       1 UNK         0.0000 
      9 C9         49.2789   32.3118   27.3449 C.3       1 UNK         0.0000 
     10 C10        53.9199   33.1367   21.3208 C.ar      1 UNK         0.0000 
     11 C11        54.1950   32.7827   22.6551 C.ar      1 UNK         0.0000 
     12 C12        53.3788   33.2677   23.6919 C.ar      1 UNK         0.0000 
     13 C13        52.2811   34.0929   23.3887 C.ar      1 UNK         0.0000 
     14 N14        49.3575   34.3144   23.1169 N.ar      1 UNK         0.0000 
     15 C15        48.2202   34.3886   23.8394 C.ar      1 UNK         0.0000 
     16 O16        47.9527   33.4370   24.8002 O.3       1 UNK         0.0000 
     17 C17        47.3803   35.5051   23.6436 C.ar      1 UNK         0.0000 
     18 N18        46.1711   35.8957   24.2031 N.2       1 UNK         0.0000 
     19 N19        46.8878   37.4312   22.7186 N.pl3     1 UNK         0.0000 
     20 C20        47.8243   36.4333   22.7259 C.ar      1 UNK         0.0000 
     21 N21        48.9772   36.3771   21.9912 N.ar      1 UNK         0.0000 
     22 N22        50.9362   35.2399   21.7355 N.pl3     1 UNK         0.0000 
     23 C23        51.9759   34.4305   22.0489 C.ar      1 UNK         0.0000 
     24 C24        52.8214   33.9663   21.0201 C.ar      1 UNK         0.0000 
     25 H25        45.0353   37.5898   23.7999 H         1 UNK         0.0000 
     26 H26        49.8869   32.6141   24.7846 H         1 UNK         0.0000 
     27 H27        48.6296   31.6849   23.9846 H         1 UNK         0.0000 
     28 H28        47.6196   31.3599   26.3320 H         1 UNK         0.0000 
     29 H29        48.8868   29.5954   25.1962 H         1 UNK         0.0000 
     30 H30        50.4081   30.3036   25.6789 H         1 UNK         0.0000 
     31 H31        48.3028   29.1534   27.5433 H         1 UNK         0.0000 
     32 H32        49.8364   28.3974   27.1566 H         1 UNK         0.0000 
     33 H33        49.9234   29.5544   29.3651 H         1 UNK         0.0000 
     34 H34        51.0400   30.3023   28.2436 H         1 UNK         0.0000 
     35 H35        48.2398   31.3156   28.9588 H         1 UNK         0.0000 
     36 H36        49.7483   32.0457   29.4428 H         1 UNK         0.0000 
     37 H37        50.3065   32.6025   27.1205 H         1 UNK         0.0000 
     38 H38        48.7265   33.2405   27.4982 H         1 UNK         0.0000 
     39 H39        54.5566   32.7798   20.5255 H         1 UNK         0.0000 
     40 H40        53.5935   33.0128   24.7195 H         1 UNK         0.0000 
     41 H41        51.6721   34.4602   24.1997 H         1 UNK         0.0000 
     42 H42        46.9102   38.2663   22.1423 H         1 UNK         0.0000 
     43 H43        51.0817   35.8298   20.9262 H         1 UNK         0.0000 
     44 H44        52.6299   34.2366   19.9926 H         1 UNK         0.0000 
     45 S45        55.3757   31.9153   22.9764 S.3       1 UNK         0.0000 
     46 O46        56.1533   31.4842   22.0281 O.2       1 UNK         0.0000 
     47 C47        55.6478   31.5517   24.4060 C.3       1 UNK         0.0000 
     48 H48        54.8714   32.0172   25.0636 H         1 UNK         0.0000 
     49 H49        55.6154   30.4392   24.5207 H         1 UNK         0.0000 
     50 H50        56.6598   31.9276   24.7004 H         1 UNK         0.0000 
@<TRIPOS>BOND
     1    1   14 ar   
     2    1   21 ar   
     3    1   22 1    
     4    2   18 ar   
     5    2   19 ar   
     6    2   25 1    
     7    3    4 1    
     8    3   16 1    
     9    3   26 1    
    10    3   27 1    
    11    4    5 1    
    12    4    9 1    
    13    4   28 1    
    14    5    6 1    
    15    5   29 1    
    16    5   30 1    
    17    6    7 1    
    18    6   31 1    
    19    6   32 1    
    20    7    8 1    
    21    7   33 1    
    22    7   34 1    
    23    8    9 1    
    24    8   35 1    
    25    8   36 1    
    26    9   37 1    
    27    9   38 1    
    28   10   11 ar   
    29   10   24 ar   
    30   10   39 1    
    31   11   12 ar   
    32   11   45 1    
    33   12   13 ar   
    34   12   40 1    
    35   13   23 ar   
    36   13   41 1    
    37   14   15 ar   
    38   15   16 1    
    39   15   17 ar   
    40   17   18 ar   
    41   17   20 ar   
    42   19   20 ar   
    43   19   42 1    
    44   20   21 ar   
    45   22   23 1    
    46   22   43 1    
    47   23   24 ar   
    48   24   44 1    
    49   45   46 2    
    50   45   47 1    
    51   47   48 1    
    52   47   49 1    
    53   47   50 1    
@<TRIPOS>SUBSTRUCTURE
     1 UNK         1 GROUP             0       ****    0 ROOT    
@<TRIPOS>MOLECULE
20
49   52    1
SMALL
USER_CHARGES


@<TRIPOS>ATOM
      1 C1         49.7062   35.2933   22.2815 C.ar      1 UNK         0.0000 
      2 C2         45.9302   37.0257   23.6071 C.ar      1 UNK         0.0000 
      3 C3         48.8379   32.3201   24.8473 C.3       1 UNK         0.0000 
      4 C4         48.6813   31.5331   26.1493 C.3       1 UNK         0.0000 
      5 C5         49.3717   30.1649   25.9895 C.3       1 UNK         0.0000 
      6 C6         49.3394   29.3593   27.2905 C.3       1 UNK         0.0000 
      7 C7         49.9805   30.1374   28.4455 C.3       1 UNK         0.0000 
      8 C8         49.2701   31.4845   28.6409 C.3       1 UNK         0.0000 
      9 C9         49.2789   32.3118   27.3449 C.3       1 UNK         0.0000 
     10 C10        53.9199   33.1367   21.3208 C.ar      1 UNK         0.0000 
     11 C11        54.1950   32.7827   22.6551 C.ar      1 UNK         0.0000 
     12 C12        53.3788   33.2677   23.6919 C.ar      1 UNK         0.0000 
     13 C13        52.2811   34.0929   23.3887 C.ar      1 UNK         0.0000 
     14 N14        49.3575   34.3144   23.1169 N.ar      1 UNK         0.0000 
     15 C15        48.2202   34.3886   23.8394 C.ar      1 UNK         0.0000 
     16 O16        47.9527   33.4370   24.8002 O.3       1 UNK         0.0000 
     17 C17        47.3803   35.5051   23.6436 C.ar      1 UNK         0.0000 
     18 N18        46.1711   35.8957   24.2031 N.2       1 UNK         0.0000 
     19 N19        46.8878   37.4312   22.7186 N.pl3     1 UNK         0.0000 
     20 C20        47.8243   36.4333   22.7259 C.ar      1 UNK         0.0000 
     21 N21        48.9772   36.3771   21.9912 N.ar      1 UNK         0.0000 
     22 N22        50.9362   35.2399   21.7355 N.pl3     1 UNK         0.0000 
     23 C23        51.9759   34.4305   22.0489 C.ar      1 UNK         0.0000 
     24 C24        52.8214   33.9663   21.0201 C.ar      1 UNK         0.0000 
     25 H25        45.0353   37.5898   23.7999 H         1 UNK         0.0000 
     26 H26        49.8869   32.6141   24.7846 H         1 UNK         0.0000 
     27 H27        48.6296   31.6849   23.9846 H         1 UNK         0.0000 
     28 H28        47.6196   31.3599   26.3320 H         1 UNK         0.0000 
     29 H29        48.8868   29.5954   25.1962 H         1 UNK         0.0000 
     30 H30        50.4081   30.3036   25.6789 H         1 UNK         0.0000 
     31 H31        48.3028   29.1534   27.5433 H         1 UNK         0.0000 
     32 H32        49.8364   28.3974   27.1566 H         1 UNK         0.0000 
     33 H33        49.9234   29.5544   29.3651 H         1 UNK         0.0000 
     34 H34        51.0400   30.3023   28.2436 H         1 UNK         0.0000 
     35 H35        48.2398   31.3156   28.9588 H         1 UNK         0.0000 
     36 H36        49.7483   32.0457   29.4428 H         1 UNK         0.0000 
     37 H37        50.3065   32.6025   27.1205 H         1 UNK         0.0000 
     38 H38        48.7265   33.2405   27.4982 H         1 UNK         0.0000 
     39 H39        55.0442   32.1588   22.8862 H         1 UNK         0.0000 
     40 H40        53.5935   33.0128   24.7195 H         1 UNK         0.0000 
     41 H41        51.6721   34.4602   24.1997 H         1 UNK         0.0000 
     42 H42        46.9102   38.2663   22.1423 H         1 UNK         0.0000 
     43 H43        51.0817   35.8298   20.9262 H         1 UNK         0.0000 
     44 H44        52.6299   34.2366   19.9926 H         1 UNK         0.0000 
     45 C45        54.8176   32.6334   20.1995 C.3       1 UNK         0.0000 
     46 H46        54.4207   33.0265   19.2635 H         1 UNK         0.0000 
     47 H47        55.8228   33.0067   20.3949 H         1 UNK         0.0000 
     48 O48        54.7756   31.2243   20.2268 O.3       1 UNK         0.0000 
     49 H49        55.1382   30.9636   21.0736 H         1 UNK         0.0000 
@<TRIPOS>BOND
     1    1   14 ar   
     2    1   21 ar   
     3    1   22 1    
     4    2   18 ar   
     5    2   19 ar   
     6    2   25 1    
     7    3    4 1    
     8    3   16 1    
     9    3   26 1    
    10    3   27 1    
    11    4    5 1    
    12    4    9 1    
    13    4   28 1    
    14    5    6 1    
    15    5   29 1    
    16    5   30 1    
    17    6    7 1    
    18    6   31 1    
    19    6   32 1    
    20    7    8 1    
    21    7   33 1    
    22    7   34 1    
    23    8    9 1    
    24    8   35 1    
    25    8   36 1    
    26    9   37 1    
    27    9   38 1    
    28   10   11 ar   
    29   10   24 ar   
    30   10   45 1    
    31   11   12 ar   
    32   11   39 1    
    33   12   13 ar   
    34   12   40 1    
    35   13   23 ar   
    36   13   41 1    
    37   14   15 ar   
    38   15   16 1    
    39   15   17 ar   
    40   17   18 ar   
    41   17   20 ar   
    42   19   20 ar   
    43   19   42 1    
    44   20   21 ar   
    45   22   23 1    
    46   22   43 1    
    47   23   24 ar   
    48   24   44 1    
    49   45   46 1    
    50   45   47 1    
    51   45   48 1    
    52   48   49 1    
@<TRIPOS>SUBSTRUCTURE
     1 UNK         1 GROUP             0       ****    0 ROOT    
@<TRIPOS>MOLECULE
22
49   52    1
SMALL
USER_CHARGES


@<TRIPOS>ATOM
      1 C1         49.7062   35.2933   22.2815 C.ar      1 UNK         0.0000 
      2 C2         45.9302   37.0257   23.6071 C.ar      1 UNK         0.0000 
      3 C3         48.8379   32.3201   24.8473 C.3       1 UNK         0.0000 
      4 C4         48.6813   31.5331   26.1493 C.3       1 UNK         0.0000 
      5 C5         49.3717   30.1649   25.9895 C.3       1 UNK         0.0000 
      6 C6         49.3394   29.3593   27.2905 C.3       1 UNK         0.0000 
      7 C7         49.9805   30.1374   28.4455 C.3       1 UNK         0.0000 
      8 C8         49.2701   31.4845   28.6409 C.3       1 UNK         0.0000 
      9 C9         49.2789   32.3118   27.3449 C.3       1 UNK         0.0000 
     10 C10        53.3788   33.2677   23.6919 C.ar      1 UNK         0.0000 
     11 C11        54.1950   32.7827   22.6551 C.ar      1 UNK         0.0000 
     12 C12        53.9199   33.1367   21.3208 C.ar      1 UNK         0.0000 
     13 C13        52.8214   33.9663   21.0201 C.ar      1 UNK         0.0000 
     14 N14        49.3575   34.3144   23.1169 N.ar      1 UNK         0.0000 
     15 C15        48.2202   34.3886   23.8394 C.ar      1 UNK         0.0000 
     16 O16        47.9527   33.4370   24.8002 O.3       1 UNK         0.0000 
     17 C17        47.3803   35.5051   23.6436 C.ar      1 UNK         0.0000 
     18 N18        46.1711   35.8957   24.2031 N.2       1 UNK         0.0000 
     19 N19        46.8878   37.4312   22.7186 N.pl3     1 UNK         0.0000 
     20 C20        47.8243   36.4333   22.7259 C.ar      1 UNK         0.0000 
     21 N21        48.9772   36.3771   21.9912 N.ar      1 UNK         0.0000 
     22 N22        50.9362   35.2399   21.7355 N.pl3     1 UNK         0.0000 
     23 C23        51.9759   34.4305   22.0489 C.ar      1 UNK         0.0000 
     24 C24        52.2811   34.0929   23.3887 C.ar      1 UNK         0.0000 
     25 H25        45.0353   37.5898   23.7999 H         1 UNK         0.0000 
     26 H26        49.8869   32.6141   24.7846 H         1 UNK         0.0000 
     27 H27        48.6296   31.6849   23.9846 H         1 UNK         0.0000 
     28 H28        47.6196   31.3599   26.3320 H         1 UNK         0.0000 
     29 H29        48.8868   29.5954   25.1962 H         1 UNK         0.0000 
     30 H30        50.4081   30.3036   25.6789 H         1 UNK         0.0000 
     31 H31        48.3028   29.1534   27.5433 H         1 UNK         0.0000 
     32 H32        49.8364   28.3974   27.1566 H         1 UNK         0.0000 
     33 H33        49.9234   29.5544   29.3651 H         1 UNK         0.0000 
     34 H34        51.0400   30.3023   28.2436 H         1 UNK         0.0000 
     35 H35        48.2398   31.3156   28.9588 H         1 UNK         0.0000 
     36 H36        49.7483   32.0457   29.4428 H         1 UNK         0.0000 
     37 H37        50.3065   32.6025   27.1205 H         1 UNK         0.0000 
     38 H38        48.7265   33.2405   27.4982 H         1 UNK         0.0000 
     39 H39        53.5903   32.9991   24.7158 H         1 UNK         0.0000 
     40 H40        55.0178   32.1214   22.8774 H         1 UNK         0.0000 
     41 H41        52.6475   34.2395   19.9912 H         1 UNK         0.0000 
     42 H42        46.9102   38.2663   22.1423 H         1 UNK         0.0000 
     43 H43        51.0817   35.8298   20.9262 H         1 UNK         0.0000 
     44 H44        51.6714   34.4767   24.1927 H         1 UNK         0.0000 
     45 S45        54.9604   32.5341   20.0083 S.3       1 UNK         0.0000 
     46 C46        56.3847   32.4812   21.0746 C.3       1 UNK         0.0000 
     47 H47        57.2469   32.1234   20.5117 H         1 UNK         0.0000 
     48 H48        56.5899   33.4812   21.4567 H         1 UNK         0.0000 
     49 H49        56.1897   31.8066   21.9082 H         1 UNK         0.0000 
@<TRIPOS>BOND
     1    1   14 ar   
     2    1   21 ar   
     3    1   22 1    
     4    2   18 ar   
     5    2   19 ar   
     6    2   25 1    
     7    3    4 1    
     8    3   16 1    
     9    3   26 1    
    10    3   27 1    
    11    4    5 1    
    12    4    9 1    
    13    4   28 1    
    14    5    6 1    
    15    5   29 1    
    16    5   30 1    
    17    6    7 1    
    18    6   31 1    
    19    6   32 1    
    20    7    8 1    
    21    7   33 1    
    22    7   34 1    
    23    8    9 1    
    24    8   35 1    
    25    8   36 1    
    26    9   37 1    
    27    9   38 1    
    28   10   11 ar   
    29   10   24 ar   
    30   10   39 1    
    31   11   12 ar   
    32   11   40 1    
    33   12   13 ar   
    34   12   45 1    
    35   13   23 ar   
    36   13   41 1    
    37   14   15 ar   
    38   15   16 1    
    39   15   17 ar   
    40   17   18 ar   
    41   17   20 ar   
    42   19   20 ar   
    43   19   42 1    
    44   20   21 ar   
    45   22   23 1    
    46   22   43 1    
    47   23   24 ar   
    48   24   44 1    
    49   45   46 1    
    50   46   47 1    
    51   46   48 1    
    52   46   49 1    
@<TRIPOS>SUBSTRUCTURE
     1 UNK         1 GROUP             0       ****    0 ROOT    
@<TRIPOS>MOLECULE
17
45   48    1
SMALL
USER_CHARGES


@<TRIPOS>ATOM
      1 C1         49.7062   35.2933   22.2815 C.ar      1 UNK         0.0000 
      2 C2         45.9302   37.0257   23.6071 C.ar      1 UNK         0.0000 
      3 C3         48.8379   32.3201   24.8473 C.3       1 UNK         0.0000 
      4 C4         48.6813   31.5331   26.1493 C.3       1 UNK         0.0000 
      5 C5         49.3717   30.1649   25.9895 C.3       1 UNK         0.0000 
      6 C6         49.3394   29.3593   27.2905 C.3       1 UNK         0.0000 
      7 C7         49.9805   30.1374   28.4455 C.3       1 UNK         0.0000 
      8 C8         49.2701   31.4845   28.6409 C.3       1 UNK         0.0000 
      9 C9         49.2789   32.3118   27.3449 C.3       1 UNK         0.0000 
     10 C10        53.3788   33.2677   23.6919 C.ar      1 UNK         0.0000 
     11 C11        54.1950   32.7827   22.6551 C.ar      1 UNK         0.0000 
     12 C12        53.9199   33.1367   21.3208 C.ar      1 UNK         0.0000 
     13 C13        52.8214   33.9663   21.0201 C.ar      1 UNK         0.0000 
     14 N14        49.3575   34.3144   23.1169 N.ar      1 UNK         0.0000 
     15 C15        48.2202   34.3886   23.8394 C.ar      1 UNK         0.0000 
     16 O16        47.9527   33.4370   24.8002 O.3       1 UNK         0.0000 
     17 C17        47.3803   35.5051   23.6436 C.ar      1 UNK         0.0000 
     18 N18        46.1711   35.8957   24.2031 N.2       1 UNK         0.0000 
     19 N19        46.8878   37.4312   22.7186 N.pl3     1 UNK         0.0000 
     20 C20        47.8243   36.4333   22.7259 C.ar      1 UNK         0.0000 
     21 N21        48.9772   36.3771   21.9912 N.ar      1 UNK         0.0000 
     22 N22        50.9362   35.2399   21.7355 N.pl3     1 UNK         0.0000 
     23 C23        51.9759   34.4305   22.0489 C.ar      1 UNK         0.0000 
     24 C24        52.2811   34.0929   23.3887 C.ar      1 UNK         0.0000 
     25 H25        45.0353   37.5898   23.7999 H         1 UNK         0.0000 
     26 H26        49.8869   32.6141   24.7846 H         1 UNK         0.0000 
     27 H27        48.6296   31.6849   23.9846 H         1 UNK         0.0000 
     28 H28        47.6196   31.3599   26.3320 H         1 UNK         0.0000 
     29 H29        48.8868   29.5954   25.1962 H         1 UNK         0.0000 
     30 H30        50.4081   30.3036   25.6789 H         1 UNK         0.0000 
     31 H31        48.3028   29.1534   27.5433 H         1 UNK         0.0000 
     32 H32        49.8364   28.3974   27.1566 H         1 UNK         0.0000 
     33 H33        49.9234   29.5544   29.3651 H         1 UNK         0.0000 
     34 H34        51.0400   30.3023   28.2436 H         1 UNK         0.0000 
     35 H35        48.2398   31.3156   28.9588 H         1 UNK         0.0000 
     36 H36        49.7483   32.0457   29.4428 H         1 UNK         0.0000 
     37 H37        50.3065   32.6025   27.1205 H         1 UNK         0.0000 
     38 H38        48.7265   33.2405   27.4982 H         1 UNK         0.0000 
     39 H39        53.5903   32.9991   24.7158 H         1 UNK         0.0000 
     40 H40        55.0178   32.1214   22.8774 H         1 UNK         0.0000 
     41 H41        52.6475   34.2395   19.9912 H         1 UNK         0.0000 
     42 H42        46.9102   38.2663   22.1423 H         1 UNK         0.0000 
     43 H43        51.0817   35.8298   20.9262 H         1 UNK         0.0000 
     44 H44        51.6714   34.4767   24.1927 H         1 UNK         0.0000 
     45 Br45       55.0152   32.4981   19.9191 Br        1 UNK         0.0000 
@<TRIPOS>BOND
     1    1   14 ar   
     2    1   21 ar   
     3    1   22 1    
     4    2   18 ar   
     5    2   19 ar   
     6    2   25 1    
     7    3    4 1    
     8    3   16 1    
     9    3   26 1    
    10    3   27 1    
    11    4    5 1    
    12    4    9 1    
    13    4   28 1    
    14    5    6 1    
    15    5   29 1    
    16    5   30 1    
    17    6    7 1    
    18    6   31 1    
    19    6   32 1    
    20    7    8 1    
    21    7   33 1    
    22    7   34 1    
    23    8    9 1    
    24    8   35 1    
    25    8   36 1    
    26    9   37 1    
    27    9   38 1    
    28   10   11 ar   
    29   10   24 ar   
    30   10   39 1    
    31   11   12 ar   
    32   11   40 1    
    33   12   13 ar   
    34   12   45 1    
    35   13   23 ar   
    36   13   41 1    
    37   14   15 ar   
    38   15   16 1    
    39   15   17 ar   
    40   17   18 ar   
    41   17   20 ar   
    42   19   20 ar   
    43   19   42 1    
    44   20   21 ar   
    45   22   23 1    
    46   22   43 1    
    47   23   24 ar   
    48   24   44 1    
@<TRIPOS>SUBSTRUCTURE
     1 UNK         1 GROUP             0       ****    0 ROOT    
@<TRIPOS>MOLECULE
1h1q
45   48    1
SMALL
USER_CHARGES


@<TRIPOS>ATOM
      1 C1         49.7062   35.2933   22.2815 C.ar      1 UNK         0.0000 
      2 C2         45.9302   37.0257   23.6071 C.ar      1 UNK         0.0000 
      3 C3         48.8379   32.3201   24.8473 C.3       1 UNK         0.0000 
      4 C4         48.6813   31.5331   26.1493 C.3       1 UNK         0.0000 
      5 C5         49.3717   30.1649   25.9895 C.3       1 UNK         0.0000 
      6 C6         49.3394   29.3593   27.2905 C.3       1 UNK         0.0000 
      7 C7         49.9805   30.1374   28.4455 C.3       1 UNK         0.0000 
      8 C8         49.2701   31.4845   28.6409 C.3       1 UNK         0.0000 
      9 C9         49.2789   32.3118   27.3449 C.3       1 UNK         0.0000 
     10 C10        53.9199   33.1367   21.3208 C.ar      1 UNK         0.0000 
     11 C11        54.1950   32.7827   22.6551 C.ar      1 UNK         0.0000 
     12 C12        53.3788   33.2677   23.6919 C.ar      1 UNK         0.0000 
     13 C13        52.2811   34.0929   23.3887 C.ar      1 UNK         0.0000 
     14 N14        49.3575   34.3144   23.1169 N.ar      1 UNK         0.0000 
     15 C15        48.2202   34.3886   23.8394 C.ar      1 UNK         0.0000 
     16 O16        47.9527   33.4370   24.8002 O.3       1 UNK         0.0000 
     17 C17        47.3803   35.5051   23.6436 C.ar      1 UNK         0.0000 
     18 N18        46.1711   35.8957   24.2031 N.2       1 UNK         0.0000 
     19 N19        46.8878   37.4312   22.7186 N.pl3     1 UNK         0.0000 
     20 C20        47.8243   36.4333   22.7259 C.ar      1 UNK         0.0000 
     21 N21        48.9772   36.3771   21.9912 N.ar      1 UNK         0.0000 
     22 N22        50.9362   35.2399   21.7355 N.pl3     1 UNK         0.0000 
     23 C23        51.9759   34.4305   22.0489 C.ar      1 UNK         0.0000 
     24 C24        52.8214   33.9663   21.0201 C.ar      1 UNK         0.0000 
     25 H25        45.0353   37.5898   23.7999 H         1 UNK         0.0000 
     26 H26        49.8869   32.6141   24.7846 H         1 UNK         0.0000 
     27 H27        48.6296   31.6849   23.9846 H         1 UNK         0.0000 
     28 H28        47.6196   31.3599   26.3320 H         1 UNK         0.0000 
     29 H29        48.8868   29.5954   25.1962 H         1 UNK         0.0000 
     30 H30        50.4081   30.3036   25.6789 H         1 UNK         0.0000 
     31 H31        48.3028   29.1534   27.5433 H         1 UNK         0.0000 
     32 H32        49.8364   28.3974   27.1566 H         1 UNK         0.0000 
     33 H33        49.9234   29.5544   29.3651 H         1 UNK         0.0000 
     34 H34        51.0400   30.3023   28.2436 H         1 UNK         0.0000 
     35 H35        48.2398   31.3156   28.9588 H         1 UNK         0.0000 
     36 H36        49.7483   32.0457   29.4428 H         1 UNK         0.0000 
     37 H37        50.3065   32.6025   27.1205 H         1 UNK         0.0000 
     38 H38        48.7265   33.2405   27.4982 H         1 UNK         0.0000 
     39 H39        54.5566   32.7798   20.5255 H         1 UNK         0.0000 
     40 H40        55.0442   32.1588   22.8862 H         1 UNK         0.0000 
     41 H41        53.5935   33.0128   24.7195 H         1 UNK         0.0000 
     42 H42        51.6721   34.4602   24.1997 H         1 UNK         0.0000 
     43 H43        46.9102   38.2663   22.1423 H         1 UNK         0.0000 
     44 H44        51.0817   35.8298   20.9262 H         1 UNK         0.0000 
     45 H45        52.6299   34.2366   19.9926 H         1 UNK         0.0000 
@<TRIPOS>BOND
     1    1   14 ar   
     2    1   21 ar   
     3    1   22 1    
     4    2   18 ar   
     5    2   19 ar   
     6    2   25 1    
     7    3    4 1    
     8    3   16 1    
     9    3   26 1    
    10    3   27 1    
    11    4    5 1    
    12    4    9 1    
    13    4   28 1    
    14    5    6 1    
    15    5   29 1    
    16    5   30 1    
    17    6    7 1    
    18    6   31 1    
    19    6   32 1    
    20    7    8 1    
    21    7   33 1    
    22    7   34 1    
    23    8    9 1    
    24    8   35 1    
    25    8   36 1    
    26    9   37 1    
    27    9   38 1    
    28   10   11 ar   
    29   10   24 ar   
    30   10   39 1    
    31   11   12 ar   
    32   11   40 1    
    33   12   13 ar   
    34   12   41 1    
    35   13   23 ar   
    36   13   42 1    
    37   14   15 ar   
    38   15   16 1    
    39   15   17 ar   
    40   17   18 ar   
    41   17   20 ar   
    42   19   20 ar   
    43   19   43 1    
    44   20   21 ar   
    45   22   23 1    
    46   22   44 1    
    47   23   24 ar   
    48   24   45 1    
@<TRIPOS>SUBSTRUCTURE
     1 UNK         1 GROUP             0       ****    0 ROOT    
