@<TRIPOS>MOLECULE
17
45   48   0
SMALL
NO_CHARGES


@<TRIPOS>ATOM
      1 C1         49.7062   35.2933   22.2815 C.ar      1 UNK         0.6786
      2 C2         45.9302   37.0257   23.6071 C.ar      1 UNK         0.3221
      3 C3         48.8379   32.3201   24.8473 C.3       1 UNK         0.0533
      4 C4         48.6813   31.5331   26.1493 C.3       1 UNK        -0.0505
      5 C5         49.3717   30.1649   25.9895 C.3       1 UNK        -0.0367
      6 C6         49.3394   29.3593   27.2905 C.3       1 UNK        -0.0506
      7 C7         49.9805   30.1374   28.4455 C.3       1 UNK        -0.0233
      8 C8         49.2701   31.4845   28.6409 C.3       1 UNK        -0.0904
      9 C9         49.2789   32.3118   27.3449 C.3       1 UNK        -0.0262
     10 C10        53.3788   33.2677   23.6919 C.ar      1 UNK        -0.1989
     11 C11        54.1950   32.7827   22.6551 C.ar      1 UNK         0.0139
     12 C12        53.9199   33.1367   21.3208 C.ar      1 UNK        -0.1363
     13 C13        52.8214   33.9663   21.0201 C.ar      1 UNK        -0.1189
     14 N14        49.3575   34.3144   23.1169 N.ar      1 UNK        -0.4766
     15 C15        48.2202   34.3886   23.8394 C.ar      1 UNK         0.3056
     16 O16        47.9527   33.4370   24.8002 O.3       1 UNK        -0.3134
     17 C17        47.3803   35.5051   23.6436 C.ar      1 UNK         0.1926
     18 N18        46.1711   35.8957   24.2031 N.2       1 UNK        -0.6995
     19 N19        46.8878   37.4312   22.7186 N.pl3     1 UNK        -0.5054
     20 C20        47.8243   36.4333   22.7259 C.ar      1 UNK         0.4972
     21 N21        48.9772   36.3771   21.9912 N.ar      1 UNK        -0.7528
     22 N22        50.9362   35.2399   21.7355 N.pl3     1 UNK        -0.5540
     23 C23        51.9759   34.4305   22.0489 C.ar      1 UNK         0.2814
     24 C24        52.2811   34.0929   23.3887 C.ar      1 UNK        -0.1277
     25 H25        45.0353   37.5898   23.7999 H         1 UNK         0.1350
     26 H26        49.8869   32.6141   24.7846 H         1 UNK         0.1042
     27 H27        48.6296   31.6849   23.9846 H         1 UNK         0.1040
     28 H28        47.6196   31.3599   26.3320 H         1 UNK         0.0661
     29 H29        48.8868   29.5954   25.1962 H         1 UNK         0.0146
     30 H30        50.4081   30.3036   25.6789 H         1 UNK         0.0355
     31 H31        48.3028   29.1534   27.5433 H         1 UNK         0.0354
     32 H32        49.8364   28.3974   27.1566 H         1 UNK         0.0172
     33 H33        49.9234   29.5544   29.3651 H         1 UNK         0.0129
     34 H34        51.0400   30.3023   28.2436 H         1 UNK         0.0276
     35 H35        48.2398   31.3156   28.9588 H         1 UNK         0.0424
     36 H36        49.7483   32.0457   29.4428 H         1 UNK         0.0278
     37 H37        50.3065   32.6025   27.1205 H         1 UNK         0.0418
     38 H38        48.7265   33.2405   27.4982 H         1 UNK         0.0118
     39 H39        53.5903   32.9991   24.7158 H         1 UNK         0.1574
     40 H40        55.0178   32.1214   22.8774 H         1 UNK         0.0901
     41 H41        52.6475   34.2395   19.9912 H         1 UNK         0.1223
     42 H42        46.9102   38.2663   22.1423 H         1 UNK         0.4298
     43 H43        51.0817   35.8298   20.9262 H         1 UNK         0.3844
     44 H44        51.6714   34.4767   24.1927 H         1 UNK         0.0480
     45 Br45       55.0152   32.4981   19.9191 Br        1 UNK        -0.0919
@<TRIPOS>BOND
     1    1   14 ar   
     2    1   21 ar   
     3    1   22 1    
     4    2   18 ar   
     5    2   19 ar   
     6    2   25 1    
     7    3    4 1    
     8    3   16 1    
     9    3   26 1    
    10    3   27 1    
    11    4    5 1    
    12    4    9 1    
    13    4   28 1    
    14    5    6 1    
    15    5   29 1    
    16    5   30 1    
    17    6    7 1    
    18    6   31 1    
    19    6   32 1    
    20    7    8 1    
    21    7   33 1    
    22    7   34 1    
    23    8    9 1    
    24    8   35 1    
    25    8   36 1    
    26    9   37 1    
    27    9   38 1    
    28   10   11 ar   
    29   10   24 ar   
    30   10   39 1    
    31   11   12 ar   
    32   11   40 1    
    33   12   13 ar   
    34   12   45 1    
    35   13   23 ar   
    36   13   41 1    
    37   14   15 ar   
    38   15   16 1    
    39   15   17 ar   
    40   17   18 ar   
    41   17   20 ar   
    42   19   20 ar   
    43   19   42 1    
    44   20   21 ar   
    45   22   23 1    
    46   22   43 1    
    47   23   24 ar   
    48   24   44 1    
@<TRIPOS>SUBSTRUCTURE
@<TRIPOS>MOLECULE
1h1q
45   48   0
SMALL
NO_CHARGES


@<TRIPOS>ATOM
      1 C1         49.7062   35.2933   22.2815 C.ar      1 UNK         0.6626
      2 C2         45.9302   37.0257   23.6071 C.ar      1 UNK         0.3164
      3 C3         48.8379   32.3201   24.8473 C.3       1 UNK         0.0579
      4 C4         48.6813   31.5331   26.1493 C.3       1 UNK        -0.0607
      5 C5         49.3717   30.1649   25.9895 C.3       1 UNK        -0.0416
      6 C6         49.3394   29.3593   27.2905 C.3       1 UNK        -0.0487
      7 C7         49.9805   30.1374   28.4455 C.3       1 UNK        -0.0258
      8 C8         49.2701   31.4845   28.6409 C.3       1 UNK        -0.0837
      9 C9         49.2789   32.3118   27.3449 C.3       1 UNK        -0.0212
     10 C10        53.9199   33.1367   21.3208 C.ar      1 UNK        -0.0560
     11 C11        54.1950   32.7827   22.6551 C.ar      1 UNK        -0.2059
     12 C12        53.3788   33.2677   23.6919 C.ar      1 UNK        -0.0956
     13 C13        52.2811   34.0929   23.3887 C.ar      1 UNK        -0.1853
     14 N14        49.3575   34.3144   23.1169 N.ar      1 UNK        -0.4801
     15 C15        48.2202   34.3886   23.8394 C.ar      1 UNK         0.3037
     16 O16        47.9527   33.4370   24.8002 O.3       1 UNK        -0.3101
     17 C17        47.3803   35.5051   23.6436 C.ar      1 UNK         0.1937
     18 N18        46.1711   35.8957   24.2031 N.2       1 UNK        -0.6964
     19 N19        46.8878   37.4312   22.7186 N.pl3     1 UNK        -0.5049
     20 C20        47.8243   36.4333   22.7259 C.ar      1 UNK         0.4852
     21 N21        48.9772   36.3771   21.9912 N.ar      1 UNK        -0.7424
     22 N22        50.9362   35.2399   21.7355 N.pl3     1 UNK        -0.5369
     23 C23        51.9759   34.4305   22.0489 C.ar      1 UNK         0.3525
     24 C24        52.8214   33.9663   21.0201 C.ar      1 UNK        -0.3427
     25 H25        45.0353   37.5898   23.7999 H         1 UNK         0.1349
     26 H26        49.8869   32.6141   24.7846 H         1 UNK         0.1073
     27 H27        48.6296   31.6849   23.9846 H         1 UNK         0.1012
     28 H28        47.6196   31.3599   26.3320 H         1 UNK         0.0690
     29 H29        48.8868   29.5954   25.1962 H         1 UNK         0.0169
     30 H30        50.4081   30.3036   25.6789 H         1 UNK         0.0374
     31 H31        48.3028   29.1534   27.5433 H         1 UNK         0.0349
     32 H32        49.8364   28.3974   27.1566 H         1 UNK         0.0168
     33 H33        49.9234   29.5544   29.3651 H         1 UNK         0.0127
     34 H34        51.0400   30.3023   28.2436 H         1 UNK         0.0280
     35 H35        48.2398   31.3156   28.9588 H         1 UNK         0.0405
     36 H36        49.7483   32.0457   29.4428 H         1 UNK         0.0260
     37 H37        50.3065   32.6025   27.1205 H         1 UNK         0.0395
     38 H38        48.7265   33.2405   27.4982 H         1 UNK         0.0079
     39 H39        54.5566   32.7798   20.5255 H         1 UNK         0.1239
     40 H40        55.0442   32.1588   22.8862 H         1 UNK         0.1381
     41 H41        53.5935   33.0128   24.7195 H         1 UNK         0.1226
     42 H42        51.6721   34.4602   24.1997 H         1 UNK         0.0427
     43 H43        46.9102   38.2663   22.1423 H         1 UNK         0.4276
     44 H44        51.0817   35.8298   20.9262 H         1 UNK         0.3578
     45 H45        52.6299   34.2366   19.9926 H         1 UNK         0.1806
@<TRIPOS>BOND
     1    1   14 ar   
     2    1   21 ar   
     3    1   22 1    
     4    2   18 ar   
     5    2   19 ar   
     6    2   25 1    
     7    3    4 1    
     8    3   16 1    
     9    3   26 1    
    10    3   27 1    
    11    4    5 1    
    12    4    9 1    
    13    4   28 1    
    14    5    6 1    
    15    5   29 1    
    16    5   30 1    
    17    6    7 1    
    18    6   31 1    
    19    6   32 1    
    20    7    8 1    
    21    7   33 1    
    22    7   34 1    
    23    8    9 1    
    24    8   35 1    
    25    8   36 1    
    26    9   37 1    
    27    9   38 1    
    28   10   11 ar   
    29   10   24 ar   
    30   10   39 1    
    31   11   12 ar   
    32   11   40 1    
    33   12   13 ar   
    34   12   41 1    
    35   13   23 ar   
    36   13   42 1    
    37   14   15 ar   
    38   15   16 1    
    39   15   17 ar   
    40   17   18 ar   
    41   17   20 ar   
    42   19   20 ar   
    43   19   43 1    
    44   20   21 ar   
    45   22   23 1    
    46   22   44 1    
    47   23   24 ar   
    48   24   45 1    
@<TRIPOS>SUBSTRUCTURE
@<TRIPOS>MOLECULE
1h1r
45   48   0
SMALL
NO_CHARGES


@<TRIPOS>ATOM
      1 C1         49.7062   35.2933   22.2815 C.ar      1 UNK         0.6595
      2 C2         45.9302   37.0257   23.6071 C.ar      1 UNK         0.3222
      3 C3         48.8379   32.3201   24.8473 C.3       1 UNK         0.0534
      4 C4         48.6813   31.5331   26.1493 C.3       1 UNK        -0.0512
      5 C5         49.3717   30.1649   25.9895 C.3       1 UNK        -0.0455
      6 C6         49.3394   29.3593   27.2905 C.3       1 UNK        -0.0459
      7 C7         49.9805   30.1374   28.4455 C.3       1 UNK        -0.0305
      8 C8         49.2701   31.4845   28.6409 C.3       1 UNK        -0.0815
      9 C9         49.2789   32.3118   27.3449 C.3       1 UNK        -0.0248
     10 C10        53.3788   33.2677   23.6919 C.ar      1 UNK        -0.1425
     11 C11        54.1950   32.7827   22.6551 C.ar      1 UNK        -0.1109
     12 C12        53.9199   33.1367   21.3208 C.ar      1 UNK         0.0258
     13 C13        52.8214   33.9663   21.0201 C.ar      1 UNK        -0.2414
     14 N14        49.3575   34.3144   23.1169 N.ar      1 UNK        -0.4703
     15 C15        48.2202   34.3886   23.8394 C.ar      1 UNK         0.3031
     16 O16        47.9527   33.4370   24.8002 O.3       1 UNK        -0.3099
     17 C17        47.3803   35.5051   23.6436 C.ar      1 UNK         0.1909
     18 N18        46.1711   35.8957   24.2031 N.2       1 UNK        -0.6986
     19 N19        46.8878   37.4312   22.7186 N.pl3     1 UNK        -0.5078
     20 C20        47.8243   36.4333   22.7259 C.ar      1 UNK         0.4973
     21 N21        48.9772   36.3771   21.9912 N.ar      1 UNK        -0.7468
     22 N22        50.9362   35.2399   21.7355 N.pl3     1 UNK        -0.5317
     23 C23        51.9759   34.4305   22.0489 C.ar      1 UNK         0.3145
     24 C24        52.2811   34.0929   23.3887 C.ar      1 UNK        -0.1667
     25 H25        45.0353   37.5898   23.7999 H         1 UNK         0.1359
     26 H26        49.8869   32.6141   24.7846 H         1 UNK         0.1082
     27 H27        48.6296   31.6849   23.9846 H         1 UNK         0.1018
     28 H28        47.6196   31.3599   26.3320 H         1 UNK         0.0681
     29 H29        48.8868   29.5954   25.1962 H         1 UNK         0.0169
     30 H30        50.4081   30.3036   25.6789 H         1 UNK         0.0379
     31 H31        48.3028   29.1534   27.5433 H         1 UNK         0.0344
     32 H32        49.8364   28.3974   27.1566 H         1 UNK         0.0173
     33 H33        49.9234   29.5544   29.3651 H         1 UNK         0.0140
     34 H34        51.0400   30.3023   28.2436 H         1 UNK         0.0291
     35 H35        48.2398   31.3156   28.9588 H         1 UNK         0.0403
     36 H36        49.7483   32.0457   29.4428 H         1 UNK         0.0262
     37 H37        50.3065   32.6025   27.1205 H         1 UNK         0.0403
     38 H38        48.7265   33.2405   27.4982 H         1 UNK         0.0077
     39 H39        53.5903   32.9991   24.7158 H         1 UNK         0.1485
     40 H40        55.0178   32.1214   22.8774 H         1 UNK         0.1280
     41 H41        52.6475   34.2395   19.9912 H         1 UNK         0.1631
     42 H42        46.9102   38.2663   22.1423 H         1 UNK         0.4308
     43 H43        51.0817   35.8298   20.9262 H         1 UNK         0.3752
     44 H44        51.6714   34.4767   24.1927 H         1 UNK         0.0499
     45 Cl45       54.9225   32.5522   20.0378 Cl        1 UNK        -0.1345
@<TRIPOS>BOND
     1    1   14 ar   
     2    1   21 ar   
     3    1   22 1    
     4    2   18 ar   
     5    2   19 ar   
     6    2   25 1    
     7    3    4 1    
     8    3   16 1    
     9    3   26 1    
    10    3   27 1    
    11    4    5 1    
    12    4    9 1    
    13    4   28 1    
    14    5    6 1    
    15    5   29 1    
    16    5   30 1    
    17    6    7 1    
    18    6   31 1    
    19    6   32 1    
    20    7    8 1    
    21    7   33 1    
    22    7   34 1    
    23    8    9 1    
    24    8   35 1    
    25    8   36 1    
    26    9   37 1    
    27    9   38 1    
    28   10   11 ar   
    29   10   24 ar   
    30   10   39 1    
    31   11   12 ar   
    32   11   40 1    
    33   12   13 ar   
    34   12   45 1    
    35   13   23 ar   
    36   13   41 1    
    37   14   15 ar   
    38   15   16 1    
    39   15   17 ar   
    40   17   18 ar   
    41   17   20 ar   
    42   19   20 ar   
    43   19   42 1    
    44   20   21 ar   
    45   22   23 1    
    46   22   43 1    
    47   23   24 ar   
    48   24   44 1    
@<TRIPOS>SUBSTRUCTURE
@<TRIPOS>MOLECULE
1h1s
50   53   0
SMALL
NO_CHARGES


@<TRIPOS>ATOM
      1 C1         49.7062   35.2933   22.2815 C.ar      1 UNK         0.6616
      2 C2         45.9302   37.0257   23.6071 C.ar      1 UNK         0.3239
      3 C3         48.8379   32.3201   24.8473 C.3       1 UNK         0.0499
      4 C4         48.6813   31.5331   26.1493 C.3       1 UNK        -0.0709
      5 C5         49.3717   30.1649   25.9895 C.3       1 UNK        -0.0460
      6 C6         49.3394   29.3593   27.2905 C.3       1 UNK        -0.0481
      7 C7         49.9805   30.1374   28.4455 C.3       1 UNK        -0.0311
      8 C8         49.2701   31.4845   28.6409 C.3       1 UNK        -0.0871
      9 C9         49.2789   32.3118   27.3449 C.3       1 UNK         0.0007
     10 C10        53.9199   33.1367   21.3208 C.ar      1 UNK        -0.0651
     11 C11        54.1950   32.7827   22.6551 C.ar      1 UNK        -0.0775
     12 C12        53.3788   33.2677   23.6919 C.ar      1 UNK        -0.1481
     13 C13        52.2811   34.0929   23.3887 C.ar      1 UNK        -0.1678
     14 N14        49.3575   34.3144   23.1169 N.ar      1 UNK        -0.4829
     15 C15        48.2202   34.3886   23.8394 C.ar      1 UNK         0.3051
     16 O16        47.9527   33.4370   24.8002 O.3       1 UNK        -0.3006
     17 C17        47.3803   35.5051   23.6436 C.ar      1 UNK         0.1925
     18 N18        46.1711   35.8957   24.2031 N.2       1 UNK        -0.6957
     19 N19        46.8878   37.4312   22.7186 N.pl3     1 UNK        -0.5076
     20 C20        47.8243   36.4333   22.7259 C.ar      1 UNK         0.4910
     21 N21        48.9772   36.3771   21.9912 N.ar      1 UNK        -0.7336
     22 N22        50.9362   35.2399   21.7355 N.pl3     1 UNK        -0.5398
     23 C23        51.9759   34.4305   22.0489 C.ar      1 UNK         0.3925
     24 C24        52.8214   33.9663   21.0201 C.ar      1 UNK        -0.3523
     25 H25        45.0353   37.5898   23.7999 H         1 UNK         0.1364
     26 H26        49.8869   32.6141   24.7846 H         1 UNK         0.1060
     27 H27        48.6296   31.6849   23.9846 H         1 UNK         0.1075
     28 H28        47.6196   31.3599   26.3320 H         1 UNK         0.0720
     29 H29        48.8868   29.5954   25.1962 H         1 UNK         0.0205
     30 H30        50.4081   30.3036   25.6789 H         1 UNK         0.0376
     31 H31        48.3028   29.1534   27.5433 H         1 UNK         0.0342
     32 H32        49.8364   28.3974   27.1566 H         1 UNK         0.0189
     33 H33        49.9234   29.5544   29.3651 H         1 UNK         0.0147
     34 H34        51.0400   30.3023   28.2436 H         1 UNK         0.0297
     35 H35        48.2398   31.3156   28.9588 H         1 UNK         0.0423
     36 H36        49.7483   32.0457   29.4428 H         1 UNK         0.0260
     37 H37        50.3065   32.6025   27.1205 H         1 UNK         0.0376
     38 H38        48.7265   33.2405   27.4982 H         1 UNK        -0.0024
     39 H39        54.5566   32.7798   20.5255 H         1 UNK         0.1609
     40 H40        53.5935   33.0128   24.7195 H         1 UNK         0.1708
     41 H41        51.6721   34.4602   24.1997 H         1 UNK         0.0501
     42 H42        46.9102   38.2663   22.1423 H         1 UNK         0.4309
     43 H43        51.0817   35.8298   20.9262 H         1 UNK         0.3668
     44 H44        52.6299   34.2366   19.9926 H         1 UNK         0.1944
     45 S45        55.3757   31.9153   22.9764 S.o2      1 UNK         0.9257
     46 O46        55.8451   31.3170   21.7325 O.2       1 UNK        -0.5340
     47 O47        56.2703   32.6766   23.8401 O.2       1 UNK        -0.5320
     48 N48        54.8264   30.5951   23.9390 N.pl3     1 UNK        -0.9014
     49 H49        54.4733   29.7694   23.4767 H         1 UNK         0.4616
     50 H50        54.7687   30.7137   24.9403 H         1 UNK         0.4619
@<TRIPOS>BOND
     1    1   14 ar   
     2    1   21 ar   
     3    1   22 1    
     4    2   18 ar   
     5    2   19 ar   
     6    2   25 1    
     7    3    4 1    
     8    3   16 1    
     9    3   26 1    
    10    3   27 1    
    11    4    5 1    
    12    4    9 1    
    13    4   28 1    
    14    5    6 1    
    15    5   29 1    
    16    5   30 1    
    17    6    7 1    
    18    6   31 1    
    19    6   32 1    
    20    7    8 1    
    21    7   33 1    
    22    7   34 1    
    23    8    9 1    
    24    8   35 1    
    25    8   36 1    
    26    9   37 1    
    27    9   38 1    
    28   10   11 ar   
    29   10   24 ar   
    30   10   39 1    
    31   11   12 ar   
    32   11   45 1    
    33   12   13 ar   
    34   12   40 1    
    35   13   23 ar   
    36   13   41 1    
    37   14   15 ar   
    38   15   16 1    
    39   15   17 ar   
    40   17   18 ar   
    41   17   20 ar   
    42   19   20 ar   
    43   19   42 1    
    44   20   21 ar   
    45   22   23 1    
    46   22   43 1    
    47   23   24 ar   
    48   24   44 1    
    49   45   46 2    
    50   45   47 2    
    51   45   48 1    
    52   48   49 1    
    53   48   50 1    
@<TRIPOS>SUBSTRUCTURE
@<TRIPOS>MOLECULE
1oi9
46   49   0
SMALL
NO_CHARGES


@<TRIPOS>ATOM
      1 C1         49.7062   35.2933   22.2815 C.ar      1 UNK         0.6623
      2 C2         45.9302   37.0257   23.6071 C.ar      1 UNK         0.3180
      3 C3         48.8379   32.3201   24.8473 C.3       1 UNK         0.0689
      4 C4         48.6813   31.5331   26.1493 C.3       1 UNK        -0.0436
      5 C5         49.3717   30.1649   25.9895 C.3       1 UNK        -0.0431
      6 C6         49.3394   29.3593   27.2905 C.3       1 UNK        -0.0771
      7 C7         49.9805   30.1374   28.4455 C.3       1 UNK        -0.0207
      8 C8         49.2701   31.4845   28.6409 C.3       1 UNK        -0.0906
      9 C9         49.2789   32.3118   27.3449 C.3       1 UNK        -0.0027
     10 C10        53.9199   33.1367   21.3208 C.ar      1 UNK        -0.2343
     11 C11        54.1950   32.7827   22.6551 C.ar      1 UNK         0.3998
     12 C12        53.3788   33.2677   23.6919 C.ar      1 UNK        -0.3641
     13 C13        52.2811   34.0929   23.3887 C.ar      1 UNK        -0.1048
     14 N14        49.3575   34.3144   23.1169 N.ar      1 UNK        -0.5054
     15 C15        48.2202   34.3886   23.8394 C.ar      1 UNK         0.3277
     16 O16        47.9527   33.4370   24.8002 O.3       1 UNK        -0.3345
     17 C17        47.3803   35.5051   23.6436 C.ar      1 UNK         0.1864
     18 N18        46.1711   35.8957   24.2031 N.2       1 UNK        -0.7008
     19 N19        46.8878   37.4312   22.7186 N.pl3     1 UNK        -0.5067
     20 C20        47.8243   36.4333   22.7259 C.ar      1 UNK         0.4925
     21 N21        48.9772   36.3771   21.9912 N.ar      1 UNK        -0.7520
     22 N22        50.9362   35.2399   21.7355 N.pl3     1 UNK        -0.5143
     23 C23        51.9759   34.4305   22.0489 C.ar      1 UNK         0.2716
     24 C24        52.8214   33.9663   21.0201 C.ar      1 UNK        -0.3098
     25 H25        45.0353   37.5898   23.7999 H         1 UNK         0.1352
     26 H26        49.8869   32.6141   24.7846 H         1 UNK         0.1060
     27 H27        48.6296   31.6849   23.9846 H         1 UNK         0.0993
     28 H28        47.6196   31.3599   26.3320 H         1 UNK         0.0627
     29 H29        48.8868   29.5954   25.1962 H         1 UNK         0.0172
     30 H30        50.4081   30.3036   25.6789 H         1 UNK         0.0439
     31 H31        48.3028   29.1534   27.5433 H         1 UNK         0.0424
     32 H32        49.8364   28.3974   27.1566 H         1 UNK         0.0246
     33 H33        49.9234   29.5544   29.3651 H         1 UNK         0.0146
     34 H34        51.0400   30.3023   28.2436 H         1 UNK         0.0267
     35 H35        48.2398   31.3156   28.9588 H         1 UNK         0.0413
     36 H36        49.7483   32.0457   29.4428 H         1 UNK         0.0263
     37 H37        50.3065   32.6025   27.1205 H         1 UNK         0.0309
     38 H38        48.7265   33.2405   27.4982 H         1 UNK         0.0043
     39 H39        54.5566   32.7798   20.5255 H         1 UNK         0.1736
     40 H40        53.5935   33.0128   24.7195 H         1 UNK         0.1685
     41 H41        51.6721   34.4602   24.1997 H         1 UNK         0.0590
     42 H42        46.9102   38.2663   22.1423 H         1 UNK         0.4286
     43 H43        51.0817   35.8298   20.9262 H         1 UNK         0.3578
     44 H44        52.6299   34.2366   19.9926 H         1 UNK         0.1933
     45 O45        55.2687   31.9939   22.9473 O.3       1 UNK        -0.6626
     46 H46        55.3177   31.8470   23.8795 H         1 UNK         0.4838
@<TRIPOS>BOND
     1    1   14 ar   
     2    1   21 ar   
     3    1   22 1    
     4    2   18 ar   
     5    2   19 ar   
     6    2   25 1    
     7    3    4 1    
     8    3   16 1    
     9    3   26 1    
    10    3   27 1    
    11    4    5 1    
    12    4    9 1    
    13    4   28 1    
    14    5    6 1    
    15    5   29 1    
    16    5   30 1    
    17    6    7 1    
    18    6   31 1    
    19    6   32 1    
    20    7    8 1    
    21    7   33 1    
    22    7   34 1    
    23    8    9 1    
    24    8   35 1    
    25    8   36 1    
    26    9   37 1    
    27    9   38 1    
    28   10   11 ar   
    29   10   24 ar   
    30   10   39 1    
    31   11   12 ar   
    32   11   45 1    
    33   12   13 ar   
    34   12   40 1    
    35   13   23 ar   
    36   13   41 1    
    37   14   15 ar   
    38   15   16 1    
    39   15   17 ar   
    40   17   18 ar   
    41   17   20 ar   
    42   19   20 ar   
    43   19   42 1    
    44   20   21 ar   
    45   22   23 1    
    46   22   43 1    
    47   23   24 ar   
    48   24   44 1    
    49   45   46 1    
@<TRIPOS>SUBSTRUCTURE
@<TRIPOS>MOLECULE
1oiu
50   53   0
SMALL
NO_CHARGES


@<TRIPOS>ATOM
      1 C1         49.7062   35.2933   22.2815 C.ar      1 UNK         0.7038
      2 C2         45.9302   37.0257   23.6071 C.ar      1 UNK         0.3406
      3 C3         48.8379   32.3201   24.8473 C.3       1 UNK         0.0587
      4 C4         48.6813   31.5331   26.1493 C.3       1 UNK         0.0541
      5 C5         49.3717   30.1649   25.9895 C.3       1 UNK        -0.1081
      6 C6         49.3394   29.3593   27.2905 C.3       1 UNK        -0.0619
      7 C7         49.9805   30.1374   28.4455 C.3       1 UNK        -0.0383
      8 C8         49.2701   31.4845   28.6409 C.3       1 UNK        -0.0550
      9 C9         49.2789   32.3118   27.3449 C.3       1 UNK        -0.1078
     10 C10        53.9199   33.1367   21.3208 C.ar      1 UNK         0.1136
     11 C11        54.1950   32.7827   22.6551 C.ar      1 UNK        -0.2819
     12 C12        53.3788   33.2677   23.6919 C.ar      1 UNK         0.0064
     13 C13        52.2811   34.0929   23.3887 C.ar      1 UNK        -0.3297
     14 N14        49.3575   34.3144   23.1169 N.ar      1 UNK        -0.5460
     15 C15        48.2202   34.3886   23.8394 C.ar      1 UNK         0.4181
     16 O16        47.9527   33.4370   24.8002 O.3       1 UNK        -0.3879
     17 C17        47.3803   35.5051   23.6436 C.ar      1 UNK         0.1558
     18 N18        46.1711   35.8957   24.2031 N.2       1 UNK        -0.7156
     19 N19        46.8878   37.4312   22.7186 N.pl3     1 UNK        -0.5120
     20 C20        47.8243   36.4333   22.7259 C.ar      1 UNK         0.4880
     21 N21        48.9772   36.3771   21.9912 N.ar      1 UNK        -0.7492
     22 N22        50.9362   35.2399   21.7355 N.pl3     1 UNK        -0.6394
     23 C23        51.9759   34.4305   22.0489 C.ar      1 UNK         0.4581
     24 C24        52.8214   33.9663   21.0201 C.ar      1 UNK        -0.3589
     25 H25        45.0353   37.5898   23.7999 H         1 UNK         0.1277
     26 H26        49.8869   32.6141   24.7846 H         1 UNK         0.0728
     27 H27        48.6296   31.6849   23.9846 H         1 UNK         0.0819
     28 H28        47.6196   31.3599   26.3320 H         1 UNK         0.0480
     29 H29        48.8868   29.5954   25.1962 H         1 UNK         0.0347
     30 H30        50.4081   30.3036   25.6789 H         1 UNK         0.0336
     31 H31        48.3028   29.1534   27.5433 H         1 UNK         0.0332
     32 H32        49.8364   28.3974   27.1566 H         1 UNK         0.0280
     33 H33        49.9234   29.5544   29.3651 H         1 UNK         0.0145
     34 H34        51.0400   30.3023   28.2436 H         1 UNK         0.0331
     35 H35        48.2398   31.3156   28.9588 H         1 UNK         0.0301
     36 H36        49.7483   32.0457   29.4428 H         1 UNK        -0.0018
     37 H37        50.3065   32.6025   27.1205 H         1 UNK         0.1103
     38 H38        48.7265   33.2405   27.4982 H         1 UNK         0.0236
     39 H39        55.0442   32.1588   22.8862 H         1 UNK         0.1855
     40 H40        53.5935   33.0128   24.7195 H         1 UNK         0.1327
     41 H41        51.6721   34.4602   24.1997 H         1 UNK         0.1891
     42 H42        46.9102   38.2663   22.1423 H         1 UNK         0.4291
     43 H43        51.0817   35.8298   20.9262 H         1 UNK         0.3895
     44 H44        52.6299   34.2366   19.9926 H         1 UNK         0.2120
     45 S45        54.8045   32.6407   20.2157 S.o2      1 UNK         0.8913
     46 O46        54.7001   31.1871   20.1752 O.2       1 UNK        -0.5255
     47 O47        54.5472   33.4557   19.0345 O.2       1 UNK        -0.5255
     48 N48        56.4404   32.9687   20.6488 N.pl3     1 UNK        -0.8476
     49 H49        56.9388   32.2957   21.2135 H         1 UNK         0.4443
     50 H50        56.8326   33.8713   20.4213 H         1 UNK         0.4498
@<TRIPOS>BOND
     1    1   14 ar   
     2    1   21 ar   
     3    1   22 1    
     4    2   18 ar   
     5    2   19 ar   
     6    2   25 1    
     7    3    4 1    
     8    3   16 1    
     9    3   26 1    
    10    3   27 1    
    11    4    5 1    
    12    4    9 1    
    13    4   28 1    
    14    5    6 1    
    15    5   29 1    
    16    5   30 1    
    17    6    7 1    
    18    6   31 1    
    19    6   32 1    
    20    7    8 1    
    21    7   33 1    
    22    7   34 1    
    23    8    9 1    
    24    8   35 1    
    25    8   36 1    
    26    9   37 1    
    27    9   38 1    
    28   10   11 ar   
    29   10   24 ar   
    30   10   45 1    
    31   11   12 ar   
    32   11   39 1    
    33   12   13 ar   
    34   12   40 1    
    35   13   23 ar   
    36   13   41 1    
    37   14   15 ar   
    38   15   16 1    
    39   15   17 ar   
    40   17   18 ar   
    41   17   20 ar   
    42   19   20 ar   
    43   19   42 1    
    44   20   21 ar   
    45   22   23 1    
    46   22   43 1    
    47   23   24 ar   
    48   24   44 1    
    49   45   46 2    
    50   45   47 2    
    51   45   48 1    
    52   48   49 1    
    53   48   50 1    
@<TRIPOS>SUBSTRUCTURE
@<TRIPOS>MOLECULE
1oiy
49   52   0
SMALL
NO_CHARGES


@<TRIPOS>ATOM
      1 C1         49.7062   35.2933   22.2815 C.ar      1 UNK         0.6606
      2 C2         45.9302   37.0257   23.6071 C.ar      1 UNK         0.3256
      3 C3         48.8379   32.3201   24.8473 C.3       1 UNK         0.0450
      4 C4         48.6813   31.5331   26.1493 C.3       1 UNK        -0.0390
      5 C5         49.3717   30.1649   25.9895 C.3       1 UNK        -0.0559
      6 C6         49.3394   29.3593   27.2905 C.3       1 UNK        -0.0460
      7 C7         49.9805   30.1374   28.4455 C.3       1 UNK        -0.0262
      8 C8         49.2701   31.4845   28.6409 C.3       1 UNK        -0.0942
      9 C9         49.2789   32.3118   27.3449 C.3       1 UNK        -0.0120
     10 C10        53.9199   33.1367   21.3208 C.ar      1 UNK        -0.0414
     11 C11        54.1950   32.7827   22.6551 C.ar      1 UNK        -0.1286
     12 C12        53.3788   33.2677   23.6919 C.ar      1 UNK        -0.1198
     13 C13        52.2811   34.0929   23.3887 C.ar      1 UNK        -0.1810
     14 N14        49.3575   34.3144   23.1169 N.ar      1 UNK        -0.5081
     15 C15        48.2202   34.3886   23.8394 C.ar      1 UNK         0.3275
     16 O16        47.9527   33.4370   24.8002 O.3       1 UNK        -0.2998
     17 C17        47.3803   35.5051   23.6436 C.ar      1 UNK         0.1776
     18 N18        46.1711   35.8957   24.2031 N.2       1 UNK        -0.6943
     19 N19        46.8878   37.4312   22.7186 N.pl3     1 UNK        -0.5109
     20 C20        47.8243   36.4333   22.7259 C.ar      1 UNK         0.4976
     21 N21        48.9772   36.3771   21.9912 N.ar      1 UNK        -0.7371
     22 N22        50.9362   35.2399   21.7355 N.pl3     1 UNK        -0.5010
     23 C23        51.9759   34.4305   22.0489 C.ar      1 UNK         0.3399
     24 C24        52.8214   33.9663   21.0201 C.ar      1 UNK        -0.3362
     25 H25        45.0353   37.5898   23.7999 H         1 UNK         0.1347
     26 H26        49.8869   32.6141   24.7846 H         1 UNK         0.0969
     27 H27        48.6296   31.6849   23.9846 H         1 UNK         0.1019
     28 H28        47.6196   31.3599   26.3320 H         1 UNK         0.0635
     29 H29        48.8868   29.5954   25.1962 H         1 UNK         0.0209
     30 H30        50.4081   30.3036   25.6789 H         1 UNK         0.0391
     31 H31        48.3028   29.1534   27.5433 H         1 UNK         0.0340
     32 H32        49.8364   28.3974   27.1566 H         1 UNK         0.0171
     33 H33        49.9234   29.5544   29.3651 H         1 UNK         0.0137
     34 H34        51.0400   30.3023   28.2436 H         1 UNK         0.0277
     35 H35        48.2398   31.3156   28.9588 H         1 UNK         0.0431
     36 H36        49.7483   32.0457   29.4428 H         1 UNK         0.0284
     37 H37        50.3065   32.6025   27.1205 H         1 UNK         0.0415
     38 H38        48.7265   33.2405   27.4982 H         1 UNK        -0.0002
     39 H39        54.5566   32.7798   20.5255 H         1 UNK         0.1136
     40 H40        53.5935   33.0128   24.7195 H         1 UNK         0.1320
     41 H41        51.6721   34.4602   24.1997 H         1 UNK         0.0748
     42 H42        46.9102   38.2663   22.1423 H         1 UNK         0.4309
     43 H43        51.0817   35.8298   20.9262 H         1 UNK         0.3490
     44 H44        52.6299   34.2366   19.9926 H         1 UNK         0.1887
     45 O45        56.1300   31.6550   22.0360 O.2       1 UNK        -0.6472
     46 C46        55.3466   31.9367   22.9685 C.2       1 UNK         0.6805
     47 N47        55.5022   31.4700   24.3856 N.am      1 UNK        -0.9082
     48 H48        54.6751   31.8636   24.9947 H         1 UNK         0.4426
     49 H49        56.2843   30.8844   24.6415 H         1 UNK         0.4388
@<TRIPOS>BOND
     1    1   14 ar   
     2    1   21 ar   
     3    1   22 1    
     4    2   18 ar   
     5    2   19 ar   
     6    2   25 1    
     7    3    4 1    
     8    3   16 1    
     9    3   26 1    
    10    3   27 1    
    11    4    5 1    
    12    4    9 1    
    13    4   28 1    
    14    5    6 1    
    15    5   29 1    
    16    5   30 1    
    17    6    7 1    
    18    6   31 1    
    19    6   32 1    
    20    7    8 1    
    21    7   33 1    
    22    7   34 1    
    23    8    9 1    
    24    8   35 1    
    25    8   36 1    
    26    9   37 1    
    27    9   38 1    
    28   10   11 ar   
    29   10   24 ar   
    30   10   39 1    
    31   11   12 ar   
    32   11   46 1    
    33   12   13 ar   
    34   12   40 1    
    35   13   23 ar   
    36   13   41 1    
    37   14   15 ar   
    38   15   16 1    
    39   15   17 ar   
    40   17   18 ar   
    41   17   20 ar   
    42   19   20 ar   
    43   19   42 1    
    44   20   21 ar   
    45   22   23 1    
    46   22   43 1    
    47   23   24 ar   
    48   24   44 1    
    49   45   46 2    
    50   46   47 am   
    51   47   48 1    
    52   47   49 1    
@<TRIPOS>SUBSTRUCTURE
@<TRIPOS>MOLECULE
20
49   52   0
SMALL
NO_CHARGES


@<TRIPOS>ATOM
      1 C1         49.7062   35.2933   22.2815 C.ar      1 UNK         0.6677
      2 C2         45.9302   37.0257   23.6071 C.ar      1 UNK         0.3196
      3 C3         48.8379   32.3201   24.8473 C.3       1 UNK         0.0475
      4 C4         48.6813   31.5331   26.1493 C.3       1 UNK        -0.0068
      5 C5         49.3717   30.1649   25.9895 C.3       1 UNK        -0.0936
      6 C6         49.3394   29.3593   27.2905 C.3       1 UNK        -0.0140
      7 C7         49.9805   30.1374   28.4455 C.3       1 UNK        -0.0582
      8 C8         49.2701   31.4845   28.6409 C.3       1 UNK        -0.0648
      9 C9         49.2789   32.3118   27.3449 C.3       1 UNK        -0.0391
     10 C10        53.9199   33.1367   21.3208 C.ar      1 UNK         0.1741
     11 C11        54.1950   32.7827   22.6551 C.ar      1 UNK        -0.3511
     12 C12        53.3788   33.2677   23.6919 C.ar      1 UNK        -0.0155
     13 C13        52.2811   34.0929   23.3887 C.ar      1 UNK        -0.2950
     14 N14        49.3575   34.3144   23.1169 N.ar      1 UNK        -0.4973
     15 C15        48.2202   34.3886   23.8394 C.ar      1 UNK         0.3314
     16 O16        47.9527   33.4370   24.8002 O.3       1 UNK        -0.3079
     17 C17        47.3803   35.5051   23.6436 C.ar      1 UNK         0.1635
     18 N18        46.1711   35.8957   24.2031 N.2       1 UNK        -0.6925
     19 N19        46.8878   37.4312   22.7186 N.pl3     1 UNK        -0.5100
     20 C20        47.8243   36.4333   22.7259 C.ar      1 UNK         0.5044
     21 N21        48.9772   36.3771   21.9912 N.ar      1 UNK        -0.7549
     22 N22        50.9362   35.2399   21.7355 N.pl3     1 UNK        -0.5250
     23 C23        51.9759   34.4305   22.0489 C.ar      1 UNK         0.3494
     24 C24        52.8214   33.9663   21.0201 C.ar      1 UNK        -0.3697
     25 H25        45.0353   37.5898   23.7999 H         1 UNK         0.1350
     26 H26        49.8869   32.6141   24.7846 H         1 UNK         0.1036
     27 H27        48.6296   31.6849   23.9846 H         1 UNK         0.0770
     28 H28        47.6196   31.3599   26.3320 H         1 UNK         0.0657
     29 H29        48.8868   29.5954   25.1962 H         1 UNK         0.0282
     30 H30        50.4081   30.3036   25.6789 H         1 UNK         0.0434
     31 H31        48.3028   29.1534   27.5433 H         1 UNK         0.0266
     32 H32        49.8364   28.3974   27.1566 H         1 UNK         0.0145
     33 H33        49.9234   29.5544   29.3651 H         1 UNK         0.0182
     34 H34        51.0400   30.3023   28.2436 H         1 UNK         0.0352
     35 H35        48.2398   31.3156   28.9588 H         1 UNK         0.0363
     36 H36        49.7483   32.0457   29.4428 H         1 UNK         0.0260
     37 H37        50.3065   32.6025   27.1205 H         1 UNK         0.0450
     38 H38        48.7265   33.2405   27.4982 H         1 UNK        -0.0009
     39 H39        55.0442   32.1588   22.8862 H         1 UNK         0.1602
     40 H40        53.5935   33.0128   24.7195 H         1 UNK         0.1148
     41 H41        51.6721   34.4602   24.1997 H         1 UNK         0.1118
     42 H42        46.9102   38.2663   22.1423 H         1 UNK         0.4295
     43 H43        51.0817   35.8298   20.9262 H         1 UNK         0.3588
     44 H44        52.6299   34.2366   19.9926 H         1 UNK         0.1724
     45 C45        54.8176   32.6334   20.1995 C.3       1 UNK         0.1554
     46 H46        54.4207   33.0265   19.2635 H         1 UNK         0.0776
     47 H47        55.8228   33.0067   20.3949 H         1 UNK         0.0405
     48 O48        54.7756   31.2243   20.2268 O.3       1 UNK        -0.6721
     49 H49        55.1382   30.9636   21.0736 H         1 UNK         0.4352
@<TRIPOS>BOND
     1    1   14 ar   
     2    1   21 ar   
     3    1   22 1    
     4    2   18 ar   
     5    2   19 ar   
     6    2   25 1    
     7    3    4 1    
     8    3   16 1    
     9    3   26 1    
    10    3   27 1    
    11    4    5 1    
    12    4    9 1    
    13    4   28 1    
    14    5    6 1    
    15    5   29 1    
    16    5   30 1    
    17    6    7 1    
    18    6   31 1    
    19    6   32 1    
    20    7    8 1    
    21    7   33 1    
    22    7   34 1    
    23    8    9 1    
    24    8   35 1    
    25    8   36 1    
    26    9   37 1    
    27    9   38 1    
    28   10   11 ar   
    29   10   24 ar   
    30   10   45 1    
    31   11   12 ar   
    32   11   39 1    
    33   12   13 ar   
    34   12   40 1    
    35   13   23 ar   
    36   13   41 1    
    37   14   15 ar   
    38   15   16 1    
    39   15   17 ar   
    40   17   18 ar   
    41   17   20 ar   
    42   19   20 ar   
    43   19   42 1    
    44   20   21 ar   
    45   22   23 1    
    46   22   43 1    
    47   23   24 ar   
    48   24   44 1    
    49   45   46 1    
    50   45   47 1    
    51   45   48 1    
    52   48   49 1    
@<TRIPOS>SUBSTRUCTURE
@<TRIPOS>MOLECULE
21
49   52   0
SMALL
NO_CHARGES


@<TRIPOS>ATOM
      1 C1         49.7062   35.2933   22.2815 C.ar      1 UNK         0.6117
      2 C2         45.9302   37.0257   23.6071 C.ar      1 UNK         0.3229
      3 C3         48.8379   32.3201   24.8473 C.3       1 UNK         0.0376
      4 C4         48.6813   31.5331   26.1493 C.3       1 UNK        -0.0370
      5 C5         49.3717   30.1649   25.9895 C.3       1 UNK        -0.0476
      6 C6         49.3394   29.3593   27.2905 C.3       1 UNK        -0.0397
      7 C7         49.9805   30.1374   28.4455 C.3       1 UNK        -0.0328
      8 C8         49.2701   31.4845   28.6409 C.3       1 UNK        -0.0845
      9 C9         49.2789   32.3118   27.3449 C.3       1 UNK        -0.0281
     10 C10        53.3788   33.2677   23.6919 C.ar      1 UNK         0.0123
     11 C11        54.1950   32.7827   22.6551 C.ar      1 UNK        -0.4473
     12 C12        53.9199   33.1367   21.3208 C.ar      1 UNK         0.5240
     13 C13        52.8214   33.9663   21.0201 C.ar      1 UNK        -0.5097
     14 N14        49.3575   34.3144   23.1169 N.ar      1 UNK        -0.4464
     15 C15        48.2202   34.3886   23.8394 C.ar      1 UNK         0.2878
     16 O16        47.9527   33.4370   24.8002 O.3       1 UNK        -0.3033
     17 C17        47.3803   35.5051   23.6436 C.ar      1 UNK         0.1964
     18 N18        46.1711   35.8957   24.2031 N.2       1 UNK        -0.7016
     19 N19        46.8878   37.4312   22.7186 N.pl3     1 UNK        -0.5121
     20 C20        47.8243   36.4333   22.7259 C.ar      1 UNK         0.4942
     21 N21        48.9772   36.3771   21.9912 N.ar      1 UNK        -0.7375
     22 N22        50.9362   35.2399   21.7355 N.pl3     1 UNK        -0.4592
     23 C23        51.9759   34.4305   22.0489 C.ar      1 UNK         0.3519
     24 C24        52.2811   34.0929   23.3887 C.ar      1 UNK        -0.3145
     25 H25        45.0353   37.5898   23.7999 H         1 UNK         0.1348
     26 H26        49.8869   32.6141   24.7846 H         1 UNK         0.1045
     27 H27        48.6296   31.6849   23.9846 H         1 UNK         0.1036
     28 H28        47.6196   31.3599   26.3320 H         1 UNK         0.0647
     29 H29        48.8868   29.5954   25.1962 H         1 UNK         0.0165
     30 H30        50.4081   30.3036   25.6789 H         1 UNK         0.0361
     31 H31        48.3028   29.1534   27.5433 H         1 UNK         0.0323
     32 H32        49.8364   28.3974   27.1566 H         1 UNK         0.0158
     33 H33        49.9234   29.5544   29.3651 H         1 UNK         0.0141
     34 H34        51.0400   30.3023   28.2436 H         1 UNK         0.0296
     35 H35        48.2398   31.3156   28.9588 H         1 UNK         0.0410
     36 H36        49.7483   32.0457   29.4428 H         1 UNK         0.0272
     37 H37        50.3065   32.6025   27.1205 H         1 UNK         0.0429
     38 H38        48.7265   33.2405   27.4982 H         1 UNK         0.0071
     39 H39        53.5903   32.9991   24.7158 H         1 UNK         0.1235
     40 H40        55.0178   32.1214   22.8774 H         1 UNK         0.1823
     41 H41        52.6475   34.2395   19.9912 H         1 UNK         0.2132
     42 H42        46.9102   38.2663   22.1423 H         1 UNK         0.4299
     43 H43        51.0817   35.8298   20.9262 H         1 UNK         0.3414
     44 H44        51.6714   34.4767   24.1927 H         1 UNK         0.0762
     45 O45        54.7104   32.6758   20.3092 O.3       1 UNK        -0.4299
     46 C46        54.2410   33.1606   19.0712 C.3       1 UNK        -0.0016
     47 H47        54.8950   32.7775   18.2483 H         1 UNK         0.1076
     48 H48        53.1912   32.8098   18.9071 H         1 UNK         0.0748
     49 H49        54.2639   34.2793   19.0757 H         1 UNK         0.0748
@<TRIPOS>BOND
     1    1   14 ar   
     2    1   21 ar   
     3    1   22 1    
     4    2   18 ar   
     5    2   19 ar   
     6    2   25 1    
     7    3    4 1    
     8    3   16 1    
     9    3   26 1    
    10    3   27 1    
    11    4    5 1    
    12    4    9 1    
    13    4   28 1    
    14    5    6 1    
    15    5   29 1    
    16    5   30 1    
    17    6    7 1    
    18    6   31 1    
    19    6   32 1    
    20    7    8 1    
    21    7   33 1    
    22    7   34 1    
    23    8    9 1    
    24    8   35 1    
    25    8   36 1    
    26    9   37 1    
    27    9   38 1    
    28   10   11 ar   
    29   10   24 ar   
    30   10   39 1    
    31   11   12 ar   
    32   11   40 1    
    33   12   13 ar   
    34   12   45 1    
    35   13   23 ar   
    36   13   41 1    
    37   14   15 ar   
    38   15   16 1    
    39   15   17 ar   
    40   17   18 ar   
    41   17   20 ar   
    42   19   20 ar   
    43   19   42 1    
    44   20   21 ar   
    45   22   23 1    
    46   22   43 1    
    47   23   24 ar   
    48   24   44 1    
    49   45   46 1    
    50   46   47 1    
    51   46   48 1    
    52   46   49 1    
@<TRIPOS>SUBSTRUCTURE
@<TRIPOS>MOLECULE
22
49   52   0
SMALL
NO_CHARGES


@<TRIPOS>ATOM
      1 C1         49.7062   35.2933   22.2815 C.ar      1 UNK         0.6603
      2 C2         45.9302   37.0257   23.6071 C.ar      1 UNK         0.3253
      3 C3         48.8379   32.3201   24.8473 C.3       1 UNK         0.0527
      4 C4         48.6813   31.5331   26.1493 C.3       1 UNK        -0.0459
      5 C5         49.3717   30.1649   25.9895 C.3       1 UNK        -0.0398
      6 C6         49.3394   29.3593   27.2905 C.3       1 UNK        -0.0739
      7 C7         49.9805   30.1374   28.4455 C.3       1 UNK        -0.0143
      8 C8         49.2701   31.4845   28.6409 C.3       1 UNK        -0.0976
      9 C9         49.2789   32.3118   27.3449 C.3       1 UNK        -0.0019
     10 C10        53.3788   33.2677   23.6919 C.ar      1 UNK        -0.2962
     11 C11        54.1950   32.7827   22.6551 C.ar      1 UNK        -0.0215
     12 C12        53.9199   33.1367   21.3208 C.ar      1 UNK         0.0876
     13 C13        52.8214   33.9663   21.0201 C.ar      1 UNK        -0.3687
     14 N14        49.3575   34.3144   23.1169 N.ar      1 UNK        -0.5123
     15 C15        48.2202   34.3886   23.8394 C.ar      1 UNK         0.3437
     16 O16        47.9527   33.4370   24.8002 O.3       1 UNK        -0.3327
     17 C17        47.3803   35.5051   23.6436 C.ar      1 UNK         0.1822
     18 N18        46.1711   35.8957   24.2031 N.2       1 UNK        -0.7011
     19 N19        46.8878   37.4312   22.7186 N.pl3     1 UNK        -0.5068
     20 C20        47.8243   36.4333   22.7259 C.ar      1 UNK         0.4916
     21 N21        48.9772   36.3771   21.9912 N.ar      1 UNK        -0.7426
     22 N22        50.9362   35.2399   21.7355 N.pl3     1 UNK        -0.4952
     23 C23        51.9759   34.4305   22.0489 C.ar      1 UNK         0.2770
     24 C24        52.2811   34.0929   23.3887 C.ar      1 UNK        -0.0726
     25 H25        45.0353   37.5898   23.7999 H         1 UNK         0.1340
     26 H26        49.8869   32.6141   24.7846 H         1 UNK         0.1013
     27 H27        48.6296   31.6849   23.9846 H         1 UNK         0.1124
     28 H28        47.6196   31.3599   26.3320 H         1 UNK         0.0626
     29 H29        48.8868   29.5954   25.1962 H         1 UNK         0.0168
     30 H30        50.4081   30.3036   25.6789 H         1 UNK         0.0427
     31 H31        48.3028   29.1534   27.5433 H         1 UNK         0.0412
     32 H32        49.8364   28.3974   27.1566 H         1 UNK         0.0226
     33 H33        49.9234   29.5544   29.3651 H         1 UNK         0.0129
     34 H34        51.0400   30.3023   28.2436 H         1 UNK         0.0251
     35 H35        48.2398   31.3156   28.9588 H         1 UNK         0.0432
     36 H36        49.7483   32.0457   29.4428 H         1 UNK         0.0270
     37 H37        50.3065   32.6025   27.1205 H         1 UNK         0.0337
     38 H38        48.7265   33.2405   27.4982 H         1 UNK         0.0063
     39 H39        53.5903   32.9991   24.7158 H         1 UNK         0.1607
     40 H40        55.0178   32.1214   22.8774 H         1 UNK         0.1296
     41 H41        52.6475   34.2395   19.9912 H         1 UNK         0.2232
     42 H42        46.9102   38.2663   22.1423 H         1 UNK         0.4291
     43 H43        51.0817   35.8298   20.9262 H         1 UNK         0.3507
     44 H44        51.6714   34.4767   24.1927 H         1 UNK         0.0366
     45 S45        54.9604   32.5341   20.0083 S.3       1 UNK        -0.2812
     46 C46        56.3847   32.4812   21.0746 C.3       1 UNK        -0.1944
     47 H47        57.2469   32.1234   20.5117 H         1 UNK         0.1769
     48 H48        56.5899   33.4812   21.4567 H         1 UNK         0.0943
     49 H49        56.1897   31.8066   21.9082 H         1 UNK         0.0953
@<TRIPOS>BOND
     1    1   14 ar   
     2    1   21 ar   
     3    1   22 1    
     4    2   18 ar   
     5    2   19 ar   
     6    2   25 1    
     7    3    4 1    
     8    3   16 1    
     9    3   26 1    
    10    3   27 1    
    11    4    5 1    
    12    4    9 1    
    13    4   28 1    
    14    5    6 1    
    15    5   29 1    
    16    5   30 1    
    17    6    7 1    
    18    6   31 1    
    19    6   32 1    
    20    7    8 1    
    21    7   33 1    
    22    7   34 1    
    23    8    9 1    
    24    8   35 1    
    25    8   36 1    
    26    9   37 1    
    27    9   38 1    
    28   10   11 ar   
    29   10   24 ar   
    30   10   39 1    
    31   11   12 ar   
    32   11   40 1    
    33   12   13 ar   
    34   12   45 1    
    35   13   23 ar   
    36   13   41 1    
    37   14   15 ar   
    38   15   16 1    
    39   15   17 ar   
    40   17   18 ar   
    41   17   20 ar   
    42   19   20 ar   
    43   19   42 1    
    44   20   21 ar   
    45   22   23 1    
    46   22   43 1    
    47   23   24 ar   
    48   24   44 1    
    49   45   46 1    
    50   46   47 1    
    51   46   48 1    
    52   46   49 1    
@<TRIPOS>SUBSTRUCTURE
@<TRIPOS>MOLECULE
26
49   52   0
SMALL
NO_CHARGES


@<TRIPOS>ATOM
      1 C1         49.7062   35.2933   22.2815 C.ar      1 UNK         0.6404
      2 C2         45.9302   37.0257   23.6071 C.ar      1 UNK         0.3188
      3 C3         48.8379   32.3201   24.8473 C.3       1 UNK         0.0590
      4 C4         48.6813   31.5331   26.1493 C.3       1 UNK        -0.0217
      5 C5         49.3717   30.1649   25.9895 C.3       1 UNK        -0.0727
      6 C6         49.3394   29.3593   27.2905 C.3       1 UNK        -0.0416
      7 C7         49.9805   30.1374   28.4455 C.3       1 UNK        -0.0328
      8 C8         49.2701   31.4845   28.6409 C.3       1 UNK        -0.0852
      9 C9         49.2789   32.3118   27.3449 C.3       1 UNK        -0.0313
     10 C10        53.9199   33.1367   21.3208 C.ar      1 UNK        -0.2910
     11 C11        54.1950   32.7827   22.6551 C.ar      1 UNK         0.3805
     12 C12        53.3788   33.2677   23.6919 C.ar      1 UNK        -0.2440
     13 C13        52.2811   34.0929   23.3887 C.ar      1 UNK        -0.2080
     14 N14        49.3575   34.3144   23.1169 N.ar      1 UNK        -0.4848
     15 C15        48.2202   34.3886   23.8394 C.ar      1 UNK         0.3098
     16 O16        47.9527   33.4370   24.8002 O.3       1 UNK        -0.3163
     17 C17        47.3803   35.5051   23.6436 C.ar      1 UNK         0.1907
     18 N18        46.1711   35.8957   24.2031 N.2       1 UNK        -0.7007
     19 N19        46.8878   37.4312   22.7186 N.pl3     1 UNK        -0.5066
     20 C20        47.8243   36.4333   22.7259 C.ar      1 UNK         0.4859
     21 N21        48.9772   36.3771   21.9912 N.ar      1 UNK        -0.7429
     22 N22        50.9362   35.2399   21.7355 N.pl3     1 UNK        -0.4700
     23 C23        51.9759   34.4305   22.0489 C.ar      1 UNK         0.2431
     24 C24        52.8214   33.9663   21.0201 C.ar      1 UNK        -0.2434
     25 H25        45.0353   37.5898   23.7999 H         1 UNK         0.1345
     26 H26        49.8869   32.6141   24.7846 H         1 UNK         0.0976
     27 H27        48.6296   31.6849   23.9846 H         1 UNK         0.0926
     28 H28        47.6196   31.3599   26.3320 H         1 UNK         0.0611
     29 H29        48.8868   29.5954   25.1962 H         1 UNK         0.0244
     30 H30        50.4081   30.3036   25.6789 H         1 UNK         0.0428
     31 H31        48.3028   29.1534   27.5433 H         1 UNK         0.0346
     32 H32        49.8364   28.3974   27.1566 H         1 UNK         0.0166
     33 H33        49.9234   29.5544   29.3651 H         1 UNK         0.0146
     34 H34        51.0400   30.3023   28.2436 H         1 UNK         0.0301
     35 H35        48.2398   31.3156   28.9588 H         1 UNK         0.0413
     36 H36        49.7483   32.0457   29.4428 H         1 UNK         0.0278
     37 H37        50.3065   32.6025   27.1205 H         1 UNK         0.0423
     38 H38        48.7265   33.2405   27.4982 H         1 UNK         0.0071
     39 H39        54.5566   32.7798   20.5255 H         1 UNK         0.1682
     40 H40        53.5935   33.0128   24.7195 H         1 UNK         0.1451
     41 H41        51.6721   34.4602   24.1997 H         1 UNK         0.0999
     42 H42        46.9102   38.2663   22.1423 H         1 UNK         0.4283
     43 H43        51.0817   35.8298   20.9262 H         1 UNK         0.3347
     44 H44        52.6299   34.2366   19.9926 H         1 UNK         0.1875
     45 O45        55.2687   31.9939   22.9473 O.3       1 UNK        -0.4220
     46 C46        55.3418   31.7747   24.3382 C.3       1 UNK        -0.0024
     47 H47        56.2250   31.1273   24.5679 H         1 UNK         0.1050
     48 H48        55.4514   32.7556   24.8652 H         1 UNK         0.0768
     49 H49        54.4070   31.2672   24.6854 H         1 UNK         0.0760
@<TRIPOS>BOND
     1    1   14 ar   
     2    1   21 ar   
     3    1   22 1    
     4    2   18 ar   
     5    2   19 ar   
     6    2   25 1    
     7    3    4 1    
     8    3   16 1    
     9    3   26 1    
    10    3   27 1    
    11    4    5 1    
    12    4    9 1    
    13    4   28 1    
    14    5    6 1    
    15    5   29 1    
    16    5   30 1    
    17    6    7 1    
    18    6   31 1    
    19    6   32 1    
    20    7    8 1    
    21    7   33 1    
    22    7   34 1    
    23    8    9 1    
    24    8   35 1    
    25    8   36 1    
    26    9   37 1    
    27    9   38 1    
    28   10   11 ar   
    29   10   24 ar   
    30   10   39 1    
    31   11   12 ar   
    32   11   45 1    
    33   12   13 ar   
    34   12   40 1    
    35   13   23 ar   
    36   13   41 1    
    37   14   15 ar   
    38   15   16 1    
    39   15   17 ar   
    40   17   18 ar   
    41   17   20 ar   
    42   19   20 ar   
    43   19   42 1    
    44   20   21 ar   
    45   22   23 1    
    46   22   43 1    
    47   23   24 ar   
    48   24   44 1    
    49   45   46 1    
    50   46   47 1    
    51   46   48 1    
    52   46   49 1    
@<TRIPOS>SUBSTRUCTURE
@<TRIPOS>MOLECULE
28
53   56   0
SMALL
NO_CHARGES


@<TRIPOS>ATOM
      1 C1         49.7062   35.2933   22.2815 C.ar      1 UNK         0.6829
      2 C2         45.9302   37.0257   23.6071 C.ar      1 UNK         0.3338
      3 C3         48.8379   32.3201   24.8473 C.3       1 UNK         0.1001
      4 C4         48.6813   31.5331   26.1493 C.3       1 UNK        -0.0310
      5 C5         49.3717   30.1649   25.9895 C.3       1 UNK         0.0757
      6 C6         49.3394   29.3593   27.2905 C.3       1 UNK        -0.1054
      7 C7         49.9805   30.1374   28.4455 C.3       1 UNK         0.1115
      8 C8         49.2701   31.4845   28.6409 C.3       1 UNK        -0.1670
      9 C9         49.2789   32.3118   27.3449 C.3       1 UNK         0.0630
     10 C10        53.9199   33.1367   21.3208 C.ar      1 UNK        -0.1848
     11 C11        54.1950   32.7827   22.6551 C.ar      1 UNK         0.1763
     12 C12        53.3788   33.2677   23.6919 C.ar      1 UNK        -0.1180
     13 C13        52.2811   34.0929   23.3887 C.ar      1 UNK        -0.2770
     14 N14        49.3575   34.3144   23.1169 N.ar      1 UNK        -0.5142
     15 C15        48.2202   34.3886   23.8394 C.ar      1 UNK         0.4176
     16 O16        47.9527   33.4370   24.8002 O.3       1 UNK        -0.3878
     17 C17        47.3803   35.5051   23.6436 C.ar      1 UNK         0.1446
     18 N18        46.1711   35.8957   24.2031 N.2       1 UNK        -0.7087
     19 N19        46.8878   37.4312   22.7186 N.pl3     1 UNK        -0.5080
     20 C20        47.8243   36.4333   22.7259 C.ar      1 UNK         0.4877
     21 N21        48.9772   36.3771   21.9912 N.ar      1 UNK        -0.7533
     22 N22        50.9362   35.2399   21.7355 N.pl3     1 UNK        -0.6481
     23 C23        51.9759   34.4305   22.0489 C.ar      1 UNK         0.3720
     24 C24        52.8214   33.9663   21.0201 C.ar      1 UNK        -0.2351
     25 H25        45.0353   37.5898   23.7999 H         1 UNK         0.1281
     26 H26        49.8869   32.6141   24.7846 H         1 UNK         0.0432
     27 H27        48.6296   31.6849   23.9846 H         1 UNK         0.0771
     28 H28        47.6196   31.3599   26.3320 H         1 UNK         0.0315
     29 H29        48.8868   29.5954   25.1962 H         1 UNK        -0.0100
     30 H30        50.4081   30.3036   25.6789 H         1 UNK        -0.0460
     31 H31        48.3028   29.1534   27.5433 H         1 UNK         0.0211
     32 H32        49.8364   28.3974   27.1566 H         1 UNK         0.0158
     33 H33        49.9234   29.5544   29.3651 H         1 UNK        -0.0306
     34 H34        51.0400   30.3023   28.2436 H         1 UNK         0.0004
     35 H35        48.2398   31.3156   28.9588 H         1 UNK         0.0346
     36 H36        49.7483   32.0457   29.4428 H         1 UNK         0.0389
     37 H37        50.3065   32.6025   27.1205 H         1 UNK        -0.0092
     38 H38        48.7265   33.2405   27.4982 H         1 UNK        -0.0016
     39 H39        54.5566   32.7798   20.5255 H         1 UNK         0.1662
     40 H40        53.5935   33.0128   24.7195 H         1 UNK         0.1427
     41 H41        51.6721   34.4602   24.1997 H         1 UNK         0.1852
     42 H42        46.9102   38.2663   22.1423 H         1 UNK         0.4274
     43 H43        51.0817   35.8298   20.9262 H         1 UNK         0.4059
     44 H44        52.6299   34.2366   19.9926 H         1 UNK         0.1832
     45 S45        55.3757   31.9153   22.9764 S.o2      1 UNK         0.7427
     46 O46        55.8451   31.3170   21.7325 O.2       1 UNK        -0.4805
     47 O47        56.2703   32.6766   23.8401 O.2       1 UNK        -0.4297
     48 N48        54.8264   30.5951   23.9390 N.pl3     1 UNK        -0.6283
     49 H49        54.4733   29.7694   23.4767 H         1 UNK         0.4301
     50 C50        54.7436   30.7652   25.3756 C.3       1 UNK        -0.0133
     51 H51        54.3794   29.8269   25.7940 H         1 UNK         0.1212
     52 H52        55.7460   30.9996   25.7340 H         1 UNK         0.0746
     53 H53        54.0497   31.5837   25.5670 H         1 UNK         0.0522
@<TRIPOS>BOND
     1    1   14 ar   
     2    1   21 ar   
     3    1   22 1    
     4    2   18 ar   
     5    2   19 ar   
     6    2   25 1    
     7    3    4 1    
     8    3   16 1    
     9    3   26 1    
    10    3   27 1    
    11    4    5 1    
    12    4    9 1    
    13    4   28 1    
    14    5    6 1    
    15    5   29 1    
    16    5   30 1    
    17    6    7 1    
    18    6   31 1    
    19    6   32 1    
    20    7    8 1    
    21    7   33 1    
    22    7   34 1    
    23    8    9 1    
    24    8   35 1    
    25    8   36 1    
    26    9   37 1    
    27    9   38 1    
    28   10   11 ar   
    29   10   24 ar   
    30   10   39 1    
    31   11   12 ar   
    32   11   45 1    
    33   12   13 ar   
    34   12   40 1    
    35   13   23 ar   
    36   13   41 1    
    37   14   15 ar   
    38   15   16 1    
    39   15   17 ar   
    40   17   18 ar   
    41   17   20 ar   
    42   19   20 ar   
    43   19   42 1    
    44   20   21 ar   
    45   22   23 1    
    46   22   43 1    
    47   23   24 ar   
    48   24   44 1    
    49   45   46 2    
    50   45   47 2    
    51   45   48 1    
    52   48   49 1    
    53   48   50 1    
    54   50   51 1    
    55   50   52 1    
    56   50   53 1    
@<TRIPOS>SUBSTRUCTURE
@<TRIPOS>MOLECULE
29
56   59   0
SMALL
NO_CHARGES


@<TRIPOS>ATOM
      1 C1         49.7062   35.2933   22.2815 C.ar      1 UNK         0.6677
      2 C2         45.9302   37.0257   23.6071 C.ar      1 UNK         0.3296
      3 C3         48.8379   32.3201   24.8473 C.3       1 UNK         0.0600
      4 C4         48.6813   31.5331   26.1493 C.3       1 UNK        -0.0232
      5 C5         49.3717   30.1649   25.9895 C.3       1 UNK        -0.0708
      6 C6         49.3394   29.3593   27.2905 C.3       1 UNK        -0.0322
      7 C7         49.9805   30.1374   28.4455 C.3       1 UNK        -0.0442
      8 C8         49.2701   31.4845   28.6409 C.3       1 UNK        -0.0594
      9 C9         49.2789   32.3118   27.3449 C.3       1 UNK        -0.0429
     10 C10        53.9199   33.1367   21.3208 C.ar      1 UNK        -0.1956
     11 C11        54.1950   32.7827   22.6551 C.ar      1 UNK         0.1383
     12 C12        53.3788   33.2677   23.6919 C.ar      1 UNK        -0.2500
     13 C13        52.2811   34.0929   23.3887 C.ar      1 UNK        -0.0919
     14 N14        49.3575   34.3144   23.1169 N.ar      1 UNK        -0.5088
     15 C15        48.2202   34.3886   23.8394 C.ar      1 UNK         0.3578
     16 O16        47.9527   33.4370   24.8002 O.3       1 UNK        -0.3325
     17 C17        47.3803   35.5051   23.6436 C.ar      1 UNK         0.1723
     18 N18        46.1711   35.8957   24.2031 N.2       1 UNK        -0.6956
     19 N19        46.8878   37.4312   22.7186 N.pl3     1 UNK        -0.5055
     20 C20        47.8243   36.4333   22.7259 C.ar      1 UNK         0.4929
     21 N21        48.9772   36.3771   21.9912 N.ar      1 UNK        -0.7335
     22 N22        50.9362   35.2399   21.7355 N.pl3     1 UNK        -0.5111
     23 C23        51.9759   34.4305   22.0489 C.ar      1 UNK         0.3051
     24 C24        52.8214   33.9663   21.0201 C.ar      1 UNK        -0.2615
     25 H25        45.0353   37.5898   23.7999 H         1 UNK         0.1345
     26 H26        49.8869   32.6141   24.7846 H         1 UNK         0.1210
     27 H27        48.6296   31.6849   23.9846 H         1 UNK         0.0870
     28 H28        47.6196   31.3599   26.3320 H         1 UNK         0.0672
     29 H29        48.8868   29.5954   25.1962 H         1 UNK         0.0188
     30 H30        50.4081   30.3036   25.6789 H         1 UNK         0.0456
     31 H31        48.3028   29.1534   27.5433 H         1 UNK         0.0319
     32 H32        49.8364   28.3974   27.1566 H         1 UNK         0.0158
     33 H33        49.9234   29.5544   29.3651 H         1 UNK         0.0152
     34 H34        51.0400   30.3023   28.2436 H         1 UNK         0.0320
     35 H35        48.2398   31.3156   28.9588 H         1 UNK         0.0337
     36 H36        49.7483   32.0457   29.4428 H         1 UNK         0.0238
     37 H37        50.3065   32.6025   27.1205 H         1 UNK         0.0377
     38 H38        48.7265   33.2405   27.4982 H         1 UNK         0.0109
     39 H39        54.5566   32.7798   20.5255 H         1 UNK         0.1772
     40 H40        53.5935   33.0128   24.7195 H         1 UNK         0.1689
     41 H41        51.6721   34.4602   24.1997 H         1 UNK         0.0466
     42 H42        46.9102   38.2663   22.1423 H         1 UNK         0.4308
     43 H43        51.0817   35.8298   20.9262 H         1 UNK         0.3604
     44 H44        52.6299   34.2366   19.9926 H         1 UNK         0.1874
     45 S45        55.3757   31.9153   22.9764 S.o2      1 UNK         0.6563
     46 O46        55.8451   31.3170   21.7325 O.2       1 UNK        -0.4808
     47 O47        56.2703   32.6766   23.8401 O.2       1 UNK        -0.4771
     48 N48        54.8977   30.7664   23.8141 N.pl3     1 UNK        -0.1869
     49 C49        54.6117   29.4880   23.1948 C.3       1 UNK        -0.3638
     50 H50        54.8060   29.5546   22.0949 H         1 UNK         0.1666
     51 H51        55.2691   28.7012   23.6427 H         1 UNK         0.1815
     52 H52        53.5391   29.2211   23.3685 H         1 UNK         0.1543
     53 C53        54.7220   30.9350   25.2424 C.3       1 UNK        -0.3635
     54 H54        54.3625   29.9745   25.6899 H         1 UNK         0.1836
     55 H55        55.6990   31.2203   25.7073 H         1 UNK         0.1645
     56 H56        53.9689   31.7403   25.4331 H         1 UNK         0.1543
@<TRIPOS>BOND
     1    1   14 ar   
     2    1   21 ar   
     3    1   22 1    
     4    2   18 ar   
     5    2   19 ar   
     6    2   25 1    
     7    3    4 1    
     8    3   16 1    
     9    3   26 1    
    10    3   27 1    
    11    4    5 1    
    12    4    9 1    
    13    4   28 1    
    14    5    6 1    
    15    5   29 1    
    16    5   30 1    
    17    6    7 1    
    18    6   31 1    
    19    6   32 1    
    20    7    8 1    
    21    7   33 1    
    22    7   34 1    
    23    8    9 1    
    24    8   35 1    
    25    8   36 1    
    26    9   37 1    
    27    9   38 1    
    28   10   11 ar   
    29   10   24 ar   
    30   10   39 1    
    31   11   12 ar   
    32   11   45 1    
    33   12   13 ar   
    34   12   40 1    
    35   13   23 ar   
    36   13   41 1    
    37   14   15 ar   
    38   15   16 1    
    39   15   17 ar   
    40   17   18 ar   
    41   17   20 ar   
    42   19   20 ar   
    43   19   42 1    
    44   20   21 ar   
    45   22   23 1    
    46   22   43 1    
    47   23   24 ar   
    48   24   44 1    
    49   45   46 2    
    50   45   47 2    
    51   45   48 1    
    52   48   49 1    
    53   48   53 1    
    54   49   50 1    
    55   49   51 1    
    56   49   52 1    
    57   53   54 1    
    58   53   55 1    
    59   53   56 1    
@<TRIPOS>SUBSTRUCTURE
@<TRIPOS>MOLECULE
30
51   54   0
SMALL
NO_CHARGES


@<TRIPOS>ATOM
      1 C1         49.7062   35.2933   22.2815 C.ar      1 UNK         0.6592
      2 C2         45.9302   37.0257   23.6071 C.ar      1 UNK         0.3298
      3 C3         48.8379   32.3201   24.8473 C.3       1 UNK         0.0559
      4 C4         48.6813   31.5331   26.1493 C.3       1 UNK        -0.0441
      5 C5         49.3717   30.1649   25.9895 C.3       1 UNK        -0.0727
      6 C6         49.3394   29.3593   27.2905 C.3       1 UNK        -0.0394
      7 C7         49.9805   30.1374   28.4455 C.3       1 UNK        -0.0401
      8 C8         49.2701   31.4845   28.6409 C.3       1 UNK        -0.0712
      9 C9         49.2789   32.3118   27.3449 C.3       1 UNK        -0.0307
     10 C10        53.9199   33.1367   21.3208 C.ar      1 UNK        -0.0863
     11 C11        54.1950   32.7827   22.6551 C.ar      1 UNK        -0.0570
     12 C12        53.3788   33.2677   23.6919 C.ar      1 UNK        -0.1303
     13 C13        52.2811   34.0929   23.3887 C.ar      1 UNK        -0.1720
     14 N14        49.3575   34.3144   23.1169 N.ar      1 UNK        -0.4993
     15 C15        48.2202   34.3886   23.8394 C.ar      1 UNK         0.3397
     16 O16        47.9527   33.4370   24.8002 O.3       1 UNK        -0.3205
     17 C17        47.3803   35.5051   23.6436 C.ar      1 UNK         0.1805
     18 N18        46.1711   35.8957   24.2031 N.2       1 UNK        -0.6969
     19 N19        46.8878   37.4312   22.7186 N.pl3     1 UNK        -0.5075
     20 C20        47.8243   36.4333   22.7259 C.ar      1 UNK         0.4915
     21 N21        48.9772   36.3771   21.9912 N.ar      1 UNK        -0.7291
     22 N22        50.9362   35.2399   21.7355 N.pl3     1 UNK        -0.5177
     23 C23        51.9759   34.4305   22.0489 C.ar      1 UNK         0.3692
     24 C24        52.8214   33.9663   21.0201 C.ar      1 UNK        -0.3265
     25 H25        45.0353   37.5898   23.7999 H         1 UNK         0.1351
     26 H26        49.8869   32.6141   24.7846 H         1 UNK         0.1166
     27 H27        48.6296   31.6849   23.9846 H         1 UNK         0.0947
     28 H28        47.6196   31.3599   26.3320 H         1 UNK         0.0715
     29 H29        48.8868   29.5954   25.1962 H         1 UNK         0.0256
     30 H30        50.4081   30.3036   25.6789 H         1 UNK         0.0460
     31 H31        48.3028   29.1534   27.5433 H         1 UNK         0.0341
     32 H32        49.8364   28.3974   27.1566 H         1 UNK         0.0181
     33 H33        49.9234   29.5544   29.3651 H         1 UNK         0.0155
     34 H34        51.0400   30.3023   28.2436 H         1 UNK         0.0325
     35 H35        48.2398   31.3156   28.9588 H         1 UNK         0.0378
     36 H36        49.7483   32.0457   29.4428 H         1 UNK         0.0254
     37 H37        50.3065   32.6025   27.1205 H         1 UNK         0.0393
     38 H38        48.7265   33.2405   27.4982 H         1 UNK         0.0080
     39 H39        54.5566   32.7798   20.5255 H         1 UNK         0.1593
     40 H40        53.5935   33.0128   24.7195 H         1 UNK         0.1526
     41 H41        51.6721   34.4602   24.1997 H         1 UNK         0.0604
     42 H42        46.9102   38.2663   22.1423 H         1 UNK         0.4313
     43 H43        51.0817   35.8298   20.9262 H         1 UNK         0.3602
     44 H44        52.6299   34.2366   19.9926 H         1 UNK         0.1952
     45 S45        55.3757   31.9153   22.9764 S.o2      1 UNK         0.8350
     46 O46        55.8451   31.3170   21.7325 O.2       1 UNK        -0.5454
     47 O47        56.2703   32.6766   23.8401 O.2       1 UNK        -0.5420
     48 C48        54.8977   30.7664   23.8141 C.3       1 UNK        -0.4142
     49 H49        55.7645   30.1453   24.0398 H         1 UNK         0.1901
     50 H50        54.4593   31.1844   24.7202 H         1 UNK         0.1666
     51 H51        54.1581   30.2214   23.2275 H         1 UNK         0.1666
@<TRIPOS>BOND
     1    1   14 ar   
     2    1   21 ar   
     3    1   22 1    
     4    2   18 ar   
     5    2   19 ar   
     6    2   25 1    
     7    3    4 1    
     8    3   16 1    
     9    3   26 1    
    10    3   27 1    
    11    4    5 1    
    12    4    9 1    
    13    4   28 1    
    14    5    6 1    
    15    5   29 1    
    16    5   30 1    
    17    6    7 1    
    18    6   31 1    
    19    6   32 1    
    20    7    8 1    
    21    7   33 1    
    22    7   34 1    
    23    8    9 1    
    24    8   35 1    
    25    8   36 1    
    26    9   37 1    
    27    9   38 1    
    28   10   11 ar   
    29   10   24 ar   
    30   10   39 1    
    31   11   12 ar   
    32   11   45 1    
    33   12   13 ar   
    34   12   40 1    
    35   13   23 ar   
    36   13   41 1    
    37   14   15 ar   
    38   15   16 1    
    39   15   17 ar   
    40   17   18 ar   
    41   17   20 ar   
    42   19   20 ar   
    43   19   42 1    
    44   20   21 ar   
    45   22   23 1    
    46   22   43 1    
    47   23   24 ar   
    48   24   44 1    
    49   45   46 2    
    50   45   47 2    
    51   45   48 1    
    52   48   49 1    
    53   48   50 1    
    54   48   51 1    
@<TRIPOS>SUBSTRUCTURE
@<TRIPOS>MOLECULE
31
50   53   0
SMALL
NO_CHARGES


@<TRIPOS>ATOM
      1 C1         49.7062   35.2933   22.2815 C.ar      1 UNK         0.6562
      2 C2         45.9302   37.0257   23.6071 C.ar      1 UNK         0.3229
      3 C3         48.8379   32.3201   24.8473 C.3       1 UNK         0.0489
      4 C4         48.6813   31.5331   26.1493 C.3       1 UNK        -0.0338
      5 C5         49.3717   30.1649   25.9895 C.3       1 UNK        -0.0952
      6 C6         49.3394   29.3593   27.2905 C.3       1 UNK        -0.0303
      7 C7         49.9805   30.1374   28.4455 C.3       1 UNK        -0.0391
      8 C8         49.2701   31.4845   28.6409 C.3       1 UNK        -0.0645
      9 C9         49.2789   32.3118   27.3449 C.3       1 UNK        -0.0033
     10 C10        53.9199   33.1367   21.3208 C.ar      1 UNK         0.0568
     11 C11        54.1950   32.7827   22.6551 C.ar      1 UNK         0.1011
     12 C12        53.3788   33.2677   23.6919 C.ar      1 UNK        -0.2909
     13 C13        52.2811   34.0929   23.3887 C.ar      1 UNK        -0.1446
     14 N14        49.3575   34.3144   23.1169 N.ar      1 UNK        -0.5218
     15 C15        48.2202   34.3886   23.8394 C.ar      1 UNK         0.3495
     16 O16        47.9527   33.4370   24.8002 O.3       1 UNK        -0.3019
     17 C17        47.3803   35.5051   23.6436 C.ar      1 UNK         0.1540
     18 N18        46.1711   35.8957   24.2031 N.2       1 UNK        -0.6892
     19 N19        46.8878   37.4312   22.7186 N.pl3     1 UNK        -0.5183
     20 C20        47.8243   36.4333   22.7259 C.ar      1 UNK         0.5220
     21 N21        48.9772   36.3771   21.9912 N.ar      1 UNK        -0.7540
     22 N22        50.9362   35.2399   21.7355 N.pl3     1 UNK        -0.4954
     23 C23        51.9759   34.4305   22.0489 C.ar      1 UNK         0.3365
     24 C24        52.8214   33.9663   21.0201 C.ar      1 UNK        -0.4331
     25 H25        45.0353   37.5898   23.7999 H         1 UNK         0.1350
     26 H26        49.8869   32.6141   24.7846 H         1 UNK         0.1007
     27 H27        48.6296   31.6849   23.9846 H         1 UNK         0.0861
     28 H28        47.6196   31.3599   26.3320 H         1 UNK         0.0696
     29 H29        48.8868   29.5954   25.1962 H         1 UNK         0.0352
     30 H30        50.4081   30.3036   25.6789 H         1 UNK         0.0474
     31 H31        48.3028   29.1534   27.5433 H         1 UNK         0.0283
     32 H32        49.8364   28.3974   27.1566 H         1 UNK         0.0164
     33 H33        49.9234   29.5544   29.3651 H         1 UNK         0.0145
     34 H34        51.0400   30.3023   28.2436 H         1 UNK         0.0294
     35 H35        48.2398   31.3156   28.9588 H         1 UNK         0.0358
     36 H36        49.7483   32.0457   29.4428 H         1 UNK         0.0210
     37 H37        50.3065   32.6025   27.1205 H         1 UNK         0.0354
     38 H38        48.7265   33.2405   27.4982 H         1 UNK        -0.0121
     39 H39        54.5566   32.7798   20.5255 H         1 UNK         0.0936
     40 H40        53.5935   33.0128   24.7195 H         1 UNK         0.1998
     41 H41        51.6721   34.4602   24.1997 H         1 UNK         0.0985
     42 H42        46.9102   38.2663   22.1423 H         1 UNK         0.4317
     43 H43        51.0817   35.8298   20.9262 H         1 UNK         0.3585
     44 H44        52.6299   34.2366   19.9926 H         1 UNK         0.2128
     45 S45        55.3757   31.9153   22.9764 S.3       1 UNK         0.1506
     46 O46        56.1533   31.4842   22.0281 O.2       1 UNK        -0.4908
     47 C47        55.6478   31.5517   24.4060 C.3       1 UNK        -0.1571
     48 H48        54.8714   32.0172   25.0636 H         1 UNK         0.0873
     49 H49        55.6154   30.4392   24.5207 H         1 UNK         0.0970
     50 H50        56.6598   31.9276   24.7004 H         1 UNK         0.1430
@<TRIPOS>BOND
     1    1   14 ar   
     2    1   21 ar   
     3    1   22 1    
     4    2   18 ar   
     5    2   19 ar   
     6    2   25 1    
     7    3    4 1    
     8    3   16 1    
     9    3   26 1    
    10    3   27 1    
    11    4    5 1    
    12    4    9 1    
    13    4   28 1    
    14    5    6 1    
    15    5   29 1    
    16    5   30 1    
    17    6    7 1    
    18    6   31 1    
    19    6   32 1    
    20    7    8 1    
    21    7   33 1    
    22    7   34 1    
    23    8    9 1    
    24    8   35 1    
    25    8   36 1    
    26    9   37 1    
    27    9   38 1    
    28   10   11 ar   
    29   10   24 ar   
    30   10   39 1    
    31   11   12 ar   
    32   11   45 1    
    33   12   13 ar   
    34   12   40 1    
    35   13   23 ar   
    36   13   41 1    
    37   14   15 ar   
    38   15   16 1    
    39   15   17 ar   
    40   17   18 ar   
    41   17   20 ar   
    42   19   20 ar   
    43   19   42 1    
    44   20   21 ar   
    45   22   23 1    
    46   22   43 1    
    47   23   24 ar   
    48   24   44 1    
    49   45   46 2    
    50   45   47 1    
    51   47   48 1    
    52   47   49 1    
    53   47   50 1    
@<TRIPOS>SUBSTRUCTURE
@<TRIPOS>MOLECULE
32
54   57   0
SMALL
NO_CHARGES


@<TRIPOS>ATOM
      1 C1         49.7062   35.2933   22.2815 C.ar      1 UNK         0.6838
      2 C2         45.9302   37.0257   23.6071 C.ar      1 UNK         0.3521
      3 C3         48.8379   32.3201   24.8473 C.3       1 UNK         0.0010
      4 C4         48.6813   31.5331   26.1493 C.3       1 UNK         0.0645
      5 C5         49.3717   30.1649   25.9895 C.3       1 UNK         0.0170
      6 C6         49.3394   29.3593   27.2905 C.3       1 UNK        -0.1397
      7 C7         49.9805   30.1374   28.4455 C.3       1 UNK         0.1181
      8 C8         49.2701   31.4845   28.6409 C.3       1 UNK        -0.2004
      9 C9         49.2789   32.3118   27.3449 C.3       1 UNK        -0.0751
     10 C10        53.3788   33.2677   23.6919 C.ar      1 UNK         0.0677
     11 C11        54.1950   32.7827   22.6551 C.ar      1 UNK        -0.3086
     12 C12        53.9199   33.1367   21.3208 C.ar      1 UNK         0.3871
     13 C13        52.8214   33.9663   21.0201 C.ar      1 UNK        -0.3607
     14 N14        49.3575   34.3144   23.1169 N.ar      1 UNK        -0.5887
     15 C15        48.2202   34.3886   23.8394 C.ar      1 UNK         0.5067
     16 O16        47.9527   33.4370   24.8002 O.3       1 UNK        -0.3853
     17 C17        47.3803   35.5051   23.6436 C.ar      1 UNK         0.0947
     18 N18        46.1711   35.8957   24.2031 N.2       1 UNK        -0.7073
     19 N19        46.8878   37.4312   22.7186 N.pl3     1 UNK        -0.5289
     20 C20        47.8243   36.4333   22.7259 C.ar      1 UNK         0.5298
     21 N21        48.9772   36.3771   21.9912 N.ar      1 UNK        -0.7636
     22 N22        50.9362   35.2399   21.7355 N.pl3     1 UNK        -0.5863
     23 C23        51.9759   34.4305   22.0489 C.ar      1 UNK         0.3865
     24 C24        52.2811   34.0929   23.3887 C.ar      1 UNK        -0.3782
     25 H25        45.0353   37.5898   23.7999 H         1 UNK         0.1241
     26 H26        49.8869   32.6141   24.7846 H         1 UNK         0.0467
     27 H27        48.6296   31.6849   23.9846 H         1 UNK         0.0972
     28 H28        47.6196   31.3599   26.3320 H         1 UNK         0.0294
     29 H29        48.8868   29.5954   25.1962 H         1 UNK        -0.0031
     30 H30        50.4081   30.3036   25.6789 H         1 UNK         0.0162
     31 H31        48.3028   29.1534   27.5433 H         1 UNK         0.0324
     32 H32        49.8364   28.3974   27.1566 H         1 UNK         0.0303
     33 H33        49.9234   29.5544   29.3651 H         1 UNK        -0.0184
     34 H34        51.0400   30.3023   28.2436 H         1 UNK        -0.0295
     35 H35        48.2398   31.3156   28.9588 H         1 UNK         0.0534
     36 H36        49.7483   32.0457   29.4428 H         1 UNK         0.0481
     37 H37        50.3065   32.6025   27.1205 H         1 UNK         0.1171
     38 H38        48.7265   33.2405   27.4982 H         1 UNK         0.0277
     39 H39        53.5903   32.9991   24.7158 H         1 UNK         0.1004
     40 H40        52.6475   34.2395   19.9912 H         1 UNK         0.1865
     41 H41        46.9102   38.2663   22.1423 H         1 UNK         0.4317
     42 H42        51.0817   35.8298   20.9262 H         1 UNK         0.3994
     43 H43        51.6714   34.4767   24.1927 H         1 UNK         0.1995
     44 S44        55.3390   31.8632   22.9642 S.o2      1 UNK         1.0361
     45 O45        55.5810   31.9147   24.4010 O.2       1 UNK        -0.4910
     46 O46        55.0977   30.5998   22.2776 O.2       1 UNK        -0.5100
     47 N47        56.7613   32.5124   22.2383 N.pl3     1 UNK        -1.0001
     48 H48        57.3021   33.1938   22.7515 H         1 UNK         0.4782
     49 H49        56.9664   32.2805   21.2769 H         1 UNK         0.4778
     50 O50        54.7104   32.6758   20.3092 O.3       1 UNK        -0.3084
     51 C51        54.2410   33.1606   19.0712 C.3       1 UNK        -0.1375
     52 H52        54.8950   32.7775   18.2483 H         1 UNK         0.1406
     53 H53        53.1912   32.8098   18.9071 H         1 UNK         0.1210
     54 H54        54.2639   34.2793   19.0757 H         1 UNK         0.1179
@<TRIPOS>BOND
     1    1   14 ar   
     2    1   21 ar   
     3    1   22 1    
     4    2   18 ar   
     5    2   19 ar   
     6    2   25 1    
     7    3    4 1    
     8    3   16 1    
     9    3   26 1    
    10    3   27 1    
    11    4    5 1    
    12    4    9 1    
    13    4   28 1    
    14    5    6 1    
    15    5   29 1    
    16    5   30 1    
    17    6    7 1    
    18    6   31 1    
    19    6   32 1    
    20    7    8 1    
    21    7   33 1    
    22    7   34 1    
    23    8    9 1    
    24    8   35 1    
    25    8   36 1    
    26    9   37 1    
    27    9   38 1    
    28   10   11 ar   
    29   10   24 ar   
    30   10   39 1    
    31   11   12 ar   
    32   11   44 1    
    33   12   13 ar   
    34   12   50 1    
    35   13   23 ar   
    36   13   40 1    
    37   14   15 ar   
    38   15   16 1    
    39   15   17 ar   
    40   17   18 ar   
    41   17   20 ar   
    42   19   20 ar   
    43   19   41 1    
    44   20   21 ar   
    45   22   23 1    
    46   22   42 1    
    47   23   24 ar   
    48   24   43 1    
    49   44   45 2    
    50   44   46 2    
    51   44   47 1    
    52   47   49 1    
    53   47   48 1    
    54   50   51 1    
    55   51   52 1    
    56   51   53 1    
    57   51   54 1    
@<TRIPOS>SUBSTRUCTURE
