@<TRIPOS>MOLECULE
18634-1
46   47    1
SMALL
USER_CHARGES


@<TRIPOS>ATOM
      1 C1         24.0733   12.4028   30.2323 C.3       1 UNK        -0.2248 
      2 C18        23.3271   11.0818   30.4341 C.3       1 UNK         0.2068 
      3 O1         22.2086   11.3387   31.2785 O.3       1 UNK        -0.3449 
      4 C2         21.4076   10.2889   31.6938 C.ar      1 UNK         0.5426 
      5 N1         21.7457    9.0394   31.2730 N.ar      1 UNK        -0.8065 
      6 C3         20.9690    8.0101   31.6444 C.ar      1 UNK         0.4356 
      7 C4         19.8628    8.1544   32.4699 C.ar      1 UNK        -0.2698 
      8 C5         19.5194    9.4254   32.8937 C.ar      1 UNK         0.3414 
      9 N2         18.3843    9.5057   33.6914 N.pl3     1 UNK        -0.8319 
     10 C6         20.2911   10.5310   32.5018 C.ar      1 UNK        -0.1086 
     11 C7         19.9686   11.9007   32.8839 C.1       1 UNK         0.2838 
     12 N3         19.7198   12.9914   33.1811 N.1       1 UNK        -0.4402 
     13 N4         21.4264    6.8283   31.0989 N.am      1 UNK        -0.3394 
     14 C8         20.8492    5.6257   31.0244 C.2       1 UNK         0.4635 
     15 O2         19.7218    5.3642   31.4396 O.2       1 UNK        -0.5077 
     16 C9         21.6453    4.5492   30.2959 C.3       1 UNK        -0.0883 
     17 C10        23.0487    4.3416   30.8592 C.ar      1 UNK        -0.0672 
     18 C11        24.1093    5.1752   30.4706 C.ar      1 UNK         0.1383 
     19 O3         23.8251    6.2111   29.5994 O.3       1 UNK        -0.3732 
     20 C12        24.7824    7.2540   29.4258 C.3       1 UNK         0.1414 
     21 C13        25.3879    4.9247   30.9874 C.ar      1 UNK        -0.1677 
     22 C14        25.5914    3.9088   31.9220 C.ar      1 UNK        -0.1613 
     23 C15        24.5221    3.1087   32.3472 C.ar      1 UNK         0.1245 
     24 C16        23.2656    3.3183   31.7864 C.ar      1 UNK        -0.1058 
     25 O4         24.6165    2.1143   33.2977 O.3       1 UNK        -0.3659 
     26 C17        25.8225    1.9829   34.0425 C.3       1 UNK         0.1393 
     27 H1         24.9321   12.2709   29.5744 H         1 UNK         0.0757 
     28 H2         23.4201   13.1517   29.7829 H         1 UNK         0.0757 
     29 H3         24.4313   12.7993   31.1825 H         1 UNK         0.0757 
     30 H4         22.9923   10.6829   29.4737 H         1 UNK         0.0474 
     31 H5         23.9965   10.3468   30.8876 H         1 UNK         0.0474 
     32 H6         19.2675    7.3077   32.7672 H         1 UNK         0.1689 
     33 H7         17.9995   10.4112   33.9502 H         1 UNK         0.3699 
     34 H8         17.9030    8.6579   33.9746 H         1 UNK         0.3699 
     35 H9         22.3340    6.9317   30.6726 H         1 UNK         0.2999 
     36 H10        21.0986    3.6093   30.2959 H         1 UNK         0.0965 
     37 H11        21.7112    4.8755   29.2640 H         1 UNK         0.0965 
     38 H12        25.6789    6.8955   28.9178 H         1 UNK         0.0409 
     39 H13        24.3494    8.0402   28.8073 H         1 UNK         0.0409 
     40 H14        25.0654    7.7073   30.3780 H         1 UNK         0.0409 
     41 H15        26.2335    5.5260   30.6895 H         1 UNK         0.1361 
     42 H16        26.5850    3.7612   32.3164 H         1 UNK         0.1349 
     43 H17        22.4552    2.6724   32.0911 H         1 UNK         0.1489 
     44 H18        26.6593    1.6972   33.4036 H         1 UNK         0.0400 
     45 H19        26.0724    2.9044   34.5706 H         1 UNK         0.0400 
     46 H20        25.6996    1.2001   34.7908 H         1 UNK         0.0400 
@<TRIPOS>BOND
     1    1    2 1    
     2    1   27 1    
     3    1   28 1    
     4    1   29 1    
     5    2    3 1    
     6    2   30 1    
     7    2   31 1    
     8    3    4 1    
     9    4   10 ar   
    10    4    5 ar   
    11    5    6 ar   
    12    6    7 ar   
    13    6   13 1    
    14    7    8 ar   
    15    7   32 1    
    16    8    9 1    
    17    8   10 ar   
    18    9   33 1    
    19    9   34 1    
    20   10   11 1    
    21   11   12 3    
    22   13   14 am   BACKBONE|DICT|INTERRES
    23   13   35 1    
    24   14   15 2    
    25   14   16 1    
    26   16   17 1    
    27   16   36 1    
    28   16   37 1    
    29   17   24 ar   
    30   17   18 ar   
    31   18   19 1    
    32   18   21 ar   
    33   19   20 1    
    34   20   38 1    
    35   20   39 1    
    36   20   40 1    
    37   21   22 ar   
    38   21   41 1    
    39   22   23 ar   
    40   22   42 1    
    41   23   24 ar   
    42   23   25 1    
    43   24   43 1    
    44   25   26 1    
    45   26   44 1    
    46   26   45 1    
    47   26   46 1    
@<TRIPOS>SUBSTRUCTURE
     1 UNK         1 GROUP             0       ****    0 ROOT    
@<TRIPOS>MOLECULE
18629-1
41   42    1
SMALL
USER_CHARGES


@<TRIPOS>ATOM
      1 C1         24.0733   12.4028   30.2323 C.3       1 UNK        -0.2248 
      2 C17        23.3271   11.0818   30.4341 C.3       1 UNK         0.2067 
      3 O1         22.2086   11.3387   31.2785 O.3       1 UNK        -0.3440 
      4 C2         21.4076   10.2889   31.6938 C.ar      1 UNK         0.5442 
      5 N1         21.7457    9.0394   31.2730 N.ar      1 UNK        -0.8107 
      6 C3         20.9690    8.0101   31.6444 C.ar      1 UNK         0.4341 
      7 C4         19.8628    8.1544   32.4699 C.ar      1 UNK        -0.2686 
      8 C5         19.5194    9.4254   32.8937 C.ar      1 UNK         0.3418 
      9 N2         18.3843    9.5057   33.6914 N.pl3     1 UNK        -0.8306 
     10 C6         20.2911   10.5310   32.5018 C.ar      1 UNK        -0.1071 
     11 C7         19.9686   11.9007   32.8839 C.1       1 UNK         0.2828 
     12 N3         19.7198   12.9914   33.1811 N.1       1 UNK        -0.4378 
     13 N4         21.4264    6.8283   31.0989 N.am      1 UNK        -0.3424 
     14 C8         20.8492    5.6257   31.0244 C.2       1 UNK         0.4589 
     15 O2         19.7218    5.3642   31.4396 O.2       1 UNK        -0.5044 
     16 C9         21.6453    4.5492   30.2959 C.3       1 UNK        -0.0991 
     17 C10        23.0487    4.3416   30.8592 C.ar      1 UNK        -0.0753 
     18 C11        23.2656    3.3183   31.7864 C.ar      1 UNK        -0.1041 
     19 C12        24.5221    3.1087   32.3472 C.ar      1 UNK        -0.0782 
     20 C13        24.7364    2.0197   33.3562 C.3       1 UNK        -0.1271 
     21 C14        25.5914    3.9088   31.9220 C.ar      1 UNK        -0.1218 
     22 C15        25.3879    4.9247   30.9874 C.ar      1 UNK        -0.1246 
     23 C16        24.1093    5.1752   30.4706 C.ar      1 UNK        -0.1243 
     24 H1         24.4313   12.7993   31.1825 H         1 UNK         0.0762 
     25 H2         24.9321   12.2709   29.5744 H         1 UNK         0.0762 
     26 H3         23.4201   13.1517   29.7829 H         1 UNK         0.0762 
     27 H4         22.9932   10.6830   29.4750 H         1 UNK         0.0471 
     28 H5         23.9955   10.3505   30.8917 H         1 UNK         0.0471 
     29 H6         19.2713    7.3009   32.7656 H         1 UNK         0.1699 
     30 H7         17.9995   10.4112   33.9502 H         1 UNK         0.3701 
     31 H8         17.9030    8.6579   33.9746 H         1 UNK         0.3701 
     32 H9         22.3435    6.8922   30.6907 H         1 UNK         0.2999 
     33 H10        21.0921    3.6097   30.3362 H         1 UNK         0.0940 
     34 H11        21.7122    4.8135   29.2402 H         1 UNK         0.0940 
     35 H12        22.4440    2.6875   32.0965 H         1 UNK         0.1336 
     36 H13        25.7794    2.0176   33.6726 H         1 UNK         0.0707 
     37 H14        24.0949    2.1935   34.2202 H         1 UNK         0.0707 
     38 H15        24.4904    1.0566   32.9090 H         1 UNK         0.0707 
     39 H16        26.5794    3.7412   32.3264 H         1 UNK         0.1314 
     40 H17        26.2222    5.5359   30.6742 H         1 UNK         0.1319 
     41 H18        23.9684    5.9663   29.7482 H         1 UNK         0.1269 
@<TRIPOS>BOND
     1    1    2 1    
     2    1   24 1    
     3    1   25 1    
     4    1   26 1    
     5    2    3 1    
     6    2   27 1    
     7    2   28 1    
     8    3    4 1    
     9    4   10 ar   
    10    4    5 ar   
    11    5    6 ar   
    12    6    7 ar   
    13    6   13 1    
    14    7    8 ar   
    15    7   29 1    
    16    8    9 1    
    17    8   10 ar   
    18    9   30 1    
    19    9   31 1    
    20   10   11 1    
    21   11   12 3    
    22   13   14 am   BACKBONE|DICT|INTERRES
    23   13   32 1    
    24   14   15 2    
    25   14   16 1    
    26   16   17 1    
    27   16   33 1    
    28   16   34 1    
    29   17   23 ar   
    30   17   18 ar   
    31   18   19 ar   
    32   18   35 1    
    33   19   20 1    
    34   19   21 ar   
    35   20   36 1    
    36   20   37 1    
    37   20   38 1    
    38   21   22 ar   
    39   21   39 1    
    40   22   23 ar   
    41   22   40 1    
    42   23   41 1    
@<TRIPOS>SUBSTRUCTURE
     1 UNK         1 GROUP             0       ****    0 ROOT    
@<TRIPOS>MOLECULE
18628-1
41   42    1
SMALL
USER_CHARGES


@<TRIPOS>ATOM
      1 C1         24.0733   12.4028   30.2323 C.3       1 UNK        -0.2248 
      2 C17        23.3271   11.0818   30.4341 C.3       1 UNK         0.2067 
      3 O1         22.2086   11.3387   31.2785 O.3       1 UNK        -0.3439 
      4 C2         21.4076   10.2889   31.6938 C.ar      1 UNK         0.5445 
      5 N1         21.7457    9.0394   31.2730 N.ar      1 UNK        -0.8109 
      6 C3         20.9690    8.0101   31.6444 C.ar      1 UNK         0.4363 
      7 C4         19.8628    8.1544   32.4699 C.ar      1 UNK        -0.2688 
      8 C5         19.5194    9.4254   32.8937 C.ar      1 UNK         0.3400 
      9 N2         18.3843    9.5057   33.6914 N.pl3     1 UNK        -0.8220 
     10 C6         20.2911   10.5310   32.5018 C.ar      1 UNK        -0.1076 
     11 C7         19.9686   11.9007   32.8839 C.1       1 UNK         0.2829 
     12 N3         19.7198   12.9914   33.1811 N.1       1 UNK        -0.4378 
     13 N4         21.4264    6.8283   31.0989 N.am      1 UNK        -0.3487 
     14 C8         20.8492    5.6257   31.0244 C.2       1 UNK         0.4550 
     15 O2         19.7218    5.3642   31.4396 O.2       1 UNK        -0.4954 
     16 C9         21.6453    4.5492   30.2959 C.3       1 UNK        -0.0993 
     17 C10        23.0487    4.3416   30.8592 C.ar      1 UNK        -0.0710 
     18 C11        24.1093    5.1752   30.4706 C.ar      1 UNK        -0.0583 
     19 C12        23.9206    6.3206   29.4917 C.3       1 UNK        -0.1296 
     20 C13        25.3879    4.9247   30.9874 C.ar      1 UNK        -0.1277 
     21 C14        25.5914    3.9088   31.9220 C.ar      1 UNK        -0.1194 
     22 C15        24.5221    3.1087   32.3472 C.ar      1 UNK        -0.1329 
     23 C16        23.2656    3.3183   31.7864 C.ar      1 UNK        -0.1074 
     24 H1         24.4313   12.7993   31.1825 H         1 UNK         0.0762 
     25 H2         24.9321   12.2709   29.5744 H         1 UNK         0.0762 
     26 H3         23.4201   13.1517   29.7829 H         1 UNK         0.0762 
     27 H4         22.9956   10.6839   29.4724 H         1 UNK         0.0470 
     28 H5         23.9947   10.3455   30.8878 H         1 UNK         0.0470 
     29 H6         19.2822    7.3015   32.7787 H         1 UNK         0.1685 
     30 H7         17.9995   10.4112   33.9502 H         1 UNK         0.3668 
     31 H8         17.9030    8.6579   33.9746 H         1 UNK         0.3668 
     32 H9         22.3325    6.9418   30.6789 H         1 UNK         0.2989 
     33 H10        21.0380    3.6469   30.3038 H         1 UNK         0.0920 
     34 H11        21.7159    4.8449   29.2516 H         1 UNK         0.0920 
     35 H12        23.0894    6.9631   29.7843 H         1 UNK         0.0706 
     36 H13        24.8059    6.9542   29.4277 H         1 UNK         0.0706 
     37 H14        23.7349    5.9152   28.5008 H         1 UNK         0.0706 
     38 H15        26.2334    5.5122   30.6585 H         1 UNK         0.1317 
     39 H16        26.5792    3.7322   32.3257 H         1 UNK         0.1305 
     40 H17        24.6906    2.3460   33.0937 H         1 UNK         0.1310 
     41 H18        22.4530    2.6595   32.0580 H         1 UNK         0.1278 
@<TRIPOS>BOND
     1    1    2 1    
     2    1   24 1    
     3    1   25 1    
     4    1   26 1    
     5    2    3 1    
     6    2   27 1    
     7    2   28 1    
     8    3    4 1    
     9    4   10 ar   
    10    4    5 ar   
    11    5    6 ar   
    12    6    7 ar   
    13    6   13 1    
    14    7    8 ar   
    15    7   29 1    
    16    8    9 1    
    17    8   10 ar   
    18    9   30 1    
    19    9   31 1    
    20   10   11 1    
    21   11   12 3    
    22   13   14 am   BACKBONE|DICT|INTERRES
    23   13   32 1    
    24   14   15 2    
    25   14   16 1    
    26   16   17 1    
    27   16   33 1    
    28   16   34 1    
    29   17   23 ar   
    30   17   18 ar   
    31   18   19 1    
    32   18   20 ar   
    33   19   35 1    
    34   19   36 1    
    35   19   37 1    
    36   20   21 ar   
    37   20   38 1    
    38   21   22 ar   
    39   21   39 1    
    40   22   23 ar   
    41   22   40 1    
    42   23   41 1    
@<TRIPOS>SUBSTRUCTURE
     1 UNK         1 GROUP             0       ****    0 ROOT    
@<TRIPOS>MOLECULE
18660-1
52   53    1
SMALL
USER_CHARGES


@<TRIPOS>ATOM
      1 C1         25.1546   13.2672   27.8100 C.3       1 UNK        -0.4893 
      2 S1         25.4909   12.1804   29.1790 S.o2      1 UNK         1.1055 
      3 O1         25.4562   10.8041   28.6723 O.2       1 UNK        -0.5484 
      4 O2         26.6597   12.7101   29.8898 O.2       1 UNK        -0.5484 
      5 C19        24.0733   12.4028   30.2323 C.3       1 UNK        -0.4469 
      6 C2         23.3271   11.0818   30.4341 C.3       1 UNK         0.2182 
      7 O3         22.2086   11.3387   31.2785 O.3       1 UNK        -0.3426 
      8 C3         21.4076   10.2889   31.6938 C.ar      1 UNK         0.5416 
      9 N1         21.7457    9.0394   31.2730 N.ar      1 UNK        -0.8023 
     10 C4         20.9690    8.0101   31.6444 C.ar      1 UNK         0.4385 
     11 C5         19.8628    8.1544   32.4699 C.ar      1 UNK        -0.2672 
     12 C6         19.5194    9.4254   32.8937 C.ar      1 UNK         0.3402 
     13 N2         18.3843    9.5057   33.6914 N.pl3     1 UNK        -0.8215 
     14 C7         20.2911   10.5310   32.5018 C.ar      1 UNK        -0.1076 
     15 C8         19.9686   11.9007   32.8839 C.1       1 UNK         0.2832 
     16 N3         19.7198   12.9914   33.1811 N.1       1 UNK        -0.4402 
     17 N4         21.4264    6.8283   31.0989 N.am      1 UNK        -0.3404 
     18 C9         20.8492    5.6257   31.0244 C.2       1 UNK         0.4614 
     19 O4         19.7218    5.3642   31.4396 O.2       1 UNK        -0.5016 
     20 C10        21.6453    4.5492   30.2959 C.3       1 UNK        -0.0875 
     21 C11        23.0487    4.3416   30.8592 C.ar      1 UNK        -0.0685 
     22 C12        24.1093    5.1752   30.4706 C.ar      1 UNK         0.1402 
     23 O5         23.8251    6.2111   29.5994 O.3       1 UNK        -0.3728 
     24 C13        24.7824    7.2540   29.4258 C.3       1 UNK         0.1405 
     25 C14        25.3879    4.9247   30.9874 C.ar      1 UNK        -0.1675 
     26 C15        25.5914    3.9088   31.9220 C.ar      1 UNK        -0.1606 
     27 C16        24.5221    3.1087   32.3472 C.ar      1 UNK         0.1238 
     28 C17        23.2656    3.3183   31.7864 C.ar      1 UNK        -0.1060 
     29 O6         24.6165    2.1143   33.2977 O.3       1 UNK        -0.3664 
     30 C18        25.8225    1.9829   34.0425 C.3       1 UNK         0.1394 
     31 H1         25.9721   13.2101   27.0914 H         1 UNK         0.1702 
     32 H2         24.2247   12.9665   27.3273 H         1 UNK         0.1702 
     33 H3         25.0609   14.2907   28.1731 H         1 UNK         0.1702 
     34 H4         24.4219   12.8041   31.1841 H         1 UNK         0.1740 
     35 H5         23.4267   13.1497   29.7711 H         1 UNK         0.1740 
     36 H6         22.9930   10.6827   29.4751 H         1 UNK         0.0657 
     37 H7         23.9951   10.3499   30.8914 H         1 UNK         0.0657 
     38 H8         19.2719    7.3005   32.7654 H         1 UNK         0.1701 
     39 H9         17.9030    8.6579   33.9746 H         1 UNK         0.3670 
     40 H10        17.9995   10.4112   33.9502 H         1 UNK         0.3670 
     41 H11        22.3314    6.8854   30.6516 H         1 UNK         0.3008 
     42 H12        21.0931    3.6096   30.3416 H         1 UNK         0.0965 
     43 H13        21.7056    4.8072   29.2382 H         1 UNK         0.0965 
     44 H14        24.3494    8.0402   28.8073 H         1 UNK         0.0420 
     45 H15        25.0654    7.7073   30.3780 H         1 UNK         0.0420 
     46 H16        25.6789    6.8955   28.9178 H         1 UNK         0.0420 
     47 H17        26.2370    5.5239   30.6972 H         1 UNK         0.1367 
     48 H18        26.5867    3.7655   32.3133 H         1 UNK         0.1348 
     49 H19        22.4431    2.6924   32.1024 H         1 UNK         0.1479 
     50 H20        26.0724    2.9044   34.5706 H         1 UNK         0.0399 
     51 H21        25.6996    1.2001   34.7908 H         1 UNK         0.0399 
     52 H22        26.6593    1.6972   33.4036 H         1 UNK         0.0399 
@<TRIPOS>BOND
     1    1    2 1    
     2    1   31 1    
     3    1   32 1    
     4    1   33 1    
     5    2    3 2    
     6    2    4 2    
     7    2    5 1    
     8    5    6 1    
     9    5   34 1    
    10    5   35 1    
    11    6    7 1    
    12    6   36 1    
    13    6   37 1    
    14    7    8 1    
    15    8   14 ar   
    16    8    9 ar   
    17    9   10 ar   
    18   10   11 ar   
    19   10   17 1    
    20   11   12 ar   
    21   11   38 1    
    22   12   13 1    
    23   12   14 ar   
    24   13   39 1    
    25   13   40 1    
    26   14   15 1    
    27   15   16 3    
    28   17   18 am   BACKBONE|DICT|INTERRES
    29   17   41 1    
    30   18   19 2    
    31   18   20 1    
    32   20   21 1    
    33   20   42 1    
    34   20   43 1    
    35   21   28 ar   
    36   21   22 ar   
    37   22   23 1    
    38   22   25 ar   
    39   23   24 1    
    40   24   44 1    
    41   24   45 1    
    42   24   46 1    
    43   25   26 ar   
    44   25   47 1    
    45   26   27 ar   
    46   26   48 1    
    47   27   28 ar   
    48   27   29 1    
    49   28   49 1    
    50   29   30 1    
    51   30   50 1    
    52   30   51 1    
    53   30   52 1    
@<TRIPOS>SUBSTRUCTURE
     1 UNK         1 GROUP             0       ****    0 ROOT    
@<TRIPOS>MOLECULE
18624-1
38   39    1
SMALL
USER_CHARGES


@<TRIPOS>ATOM
      1 C1         24.0733   12.4028   30.2323 C.3       1 UNK        -0.2248 
      2 C16        23.3271   11.0818   30.4341 C.3       1 UNK         0.2066 
      3 O1         22.2086   11.3387   31.2785 O.3       1 UNK        -0.3439 
      4 C2         21.4076   10.2889   31.6938 C.ar      1 UNK         0.5443 
      5 N1         21.7457    9.0394   31.2730 N.ar      1 UNK        -0.8107 
      6 C3         20.9690    8.0101   31.6444 C.ar      1 UNK         0.4339 
      7 C4         19.8628    8.1544   32.4699 C.ar      1 UNK        -0.2686 
      8 C5         19.5194    9.4254   32.8937 C.ar      1 UNK         0.3418 
      9 N2         18.3843    9.5057   33.6914 N.pl3     1 UNK        -0.8306 
     10 C6         20.2911   10.5310   32.5018 C.ar      1 UNK        -0.1069 
     11 C7         19.9686   11.9007   32.8839 C.1       1 UNK         0.2828 
     12 N3         19.7198   12.9914   33.1811 N.1       1 UNK        -0.4377 
     13 N4         21.4264    6.8283   31.0989 N.am      1 UNK        -0.3423 
     14 C8         20.8492    5.6257   31.0244 C.2       1 UNK         0.4589 
     15 O2         19.7218    5.3642   31.4396 O.2       1 UNK        -0.5044 
     16 C9         21.6453    4.5492   30.2959 C.3       1 UNK        -0.0996 
     17 C10        23.0487    4.3416   30.8592 C.ar      1 UNK        -0.0779 
     18 C11        24.1093    5.1752   30.4706 C.ar      1 UNK        -0.1114 
     19 C12        25.3879    4.9247   30.9874 C.ar      1 UNK        -0.1270 
     20 C13        25.5914    3.9088   31.9220 C.ar      1 UNK        -0.1222 
     21 C14        24.5221    3.1087   32.3472 C.ar      1 UNK        -0.1270 
     22 C15        23.2656    3.3183   31.7864 C.ar      1 UNK        -0.1114 
     23 H1         24.9321   12.2709   29.5744 H         1 UNK         0.0762 
     24 H2         23.4201   13.1517   29.7829 H         1 UNK         0.0762 
     25 H3         24.4313   12.7993   31.1825 H         1 UNK         0.0762 
     26 H4         22.9955   10.6839   29.4725 H         1 UNK         0.0471 
     27 H5         23.9940   10.3454   30.8885 H         1 UNK         0.0471 
     28 H6         19.2795    7.3026   32.7768 H         1 UNK         0.1698 
     29 H7         17.9030    8.6579   33.9746 H         1 UNK         0.3702 
     30 H8         17.9995   10.4112   33.9502 H         1 UNK         0.3702 
     31 H9         22.3466    6.9260   30.7071 H         1 UNK         0.2999 
     32 H10        21.0677    3.6256   30.3284 H         1 UNK         0.0942 
     33 H11        21.7094    4.8301   29.2476 H         1 UNK         0.0942 
     34 H12        23.9315    5.9967   29.7907 H         1 UNK         0.1304 
     35 H13        26.2312    5.5203   30.6653 H         1 UNK         0.1326 
     36 H14        26.5803    3.7358   32.3241 H         1 UNK         0.1312 
     37 H15        24.6826    2.3489   33.0992 H         1 UNK         0.1326 
     38 H16        22.4547    2.6689   32.0859 H         1 UNK         0.1304 
@<TRIPOS>BOND
     1    1    2 1    
     2    1   23 1    
     3    1   24 1    
     4    1   25 1    
     5    2    3 1    
     6    2   26 1    
     7    2   27 1    
     8    3    4 1    
     9    4   10 ar   
    10    4    5 ar   
    11    5    6 ar   
    12    6    7 ar   
    13    6   13 1    
    14    7    8 ar   
    15    7   28 1    
    16    8    9 1    
    17    8   10 ar   
    18    9   29 1    
    19    9   30 1    
    20   10   11 1    
    21   11   12 3    
    22   13   14 am   BACKBONE|DICT|INTERRES
    23   13   31 1    
    24   14   15 2    
    25   14   16 1    
    26   16   17 1    
    27   16   32 1    
    28   16   33 1    
    29   17   22 ar   
    30   17   18 ar   
    31   18   19 ar   
    32   18   34 1    
    33   19   20 ar   
    34   19   35 1    
    35   20   21 ar   
    36   20   36 1    
    37   21   22 ar   
    38   21   37 1    
    39   22   38 1    
@<TRIPOS>SUBSTRUCTURE
     1 UNK         1 GROUP             0       ****    0 ROOT    
@<TRIPOS>MOLECULE
18633-1
42   43    1
SMALL
USER_CHARGES


@<TRIPOS>ATOM
      1 C1         24.0733   12.4028   30.2323 C.3       1 UNK        -0.2248 
      2 C17        23.3271   11.0818   30.4341 C.3       1 UNK         0.2067 
      3 O1         22.2086   11.3387   31.2785 O.3       1 UNK        -0.3440 
      4 C2         21.4076   10.2889   31.6938 C.ar      1 UNK         0.5445 
      5 N1         21.7457    9.0394   31.2730 N.ar      1 UNK        -0.8114 
      6 C3         20.9690    8.0101   31.6444 C.ar      1 UNK         0.4347 
      7 C4         19.8628    8.1544   32.4699 C.ar      1 UNK        -0.2686 
      8 C5         19.5194    9.4254   32.8937 C.ar      1 UNK         0.3400 
      9 N2         18.3843    9.5057   33.6914 N.pl3     1 UNK        -0.8223 
     10 C6         20.2911   10.5310   32.5018 C.ar      1 UNK        -0.1080 
     11 C7         19.9686   11.9007   32.8839 C.1       1 UNK         0.2830 
     12 N3         19.7198   12.9914   33.1811 N.1       1 UNK        -0.4381 
     13 N4         21.4264    6.8283   31.0989 N.am      1 UNK        -0.3438 
     14 C8         20.8492    5.6257   31.0244 C.2       1 UNK         0.4560 
     15 O2         19.7218    5.3642   31.4396 O.2       1 UNK        -0.4991 
     16 C9         21.6453    4.5492   30.2959 C.3       1 UNK        -0.0947 
     17 C10        23.0487    4.3416   30.8592 C.ar      1 UNK        -0.1133 
     18 C11        24.1093    5.1752   30.4706 C.ar      1 UNK        -0.0787 
     19 C12        25.3879    4.9247   30.9874 C.ar      1 UNK        -0.1773 
     20 C13        25.5914    3.9088   31.9220 C.ar      1 UNK         0.1618 
     21 C14        24.5221    3.1087   32.3472 C.ar      1 UNK        -0.1773 
     22 C15        23.2656    3.3183   31.7864 C.ar      1 UNK        -0.0787 
     23 O3         26.8531    3.6949   32.4386 O.3       1 UNK        -0.3661 
     24 C16        26.9401    2.6720   33.3608 C.3       1 UNK         0.1375 
     25 H1         24.4313   12.7993   31.1825 H         1 UNK         0.0762 
     26 H2         24.9321   12.2709   29.5744 H         1 UNK         0.0762 
     27 H3         23.4201   13.1517   29.7829 H         1 UNK         0.0762 
     28 H4         22.9931   10.6831   29.4750 H         1 UNK         0.0470 
     29 H5         23.9955   10.3504   30.8916 H         1 UNK         0.0470 
     30 H6         19.2712    7.3009   32.7655 H         1 UNK         0.1694 
     31 H7         17.9995   10.4112   33.9502 H         1 UNK         0.3670 
     32 H8         17.9030    8.6579   33.9746 H         1 UNK         0.3670 
     33 H9         22.3437    6.8921   30.6910 H         1 UNK         0.2988 
     34 H10        21.0921    3.6096   30.3363 H         1 UNK         0.0926 
     35 H11        21.7121    4.8134   29.2401 H         1 UNK         0.0926 
     36 H12        23.9684    5.9663   29.7482 H         1 UNK         0.1335 
     37 H13        26.2222    5.5359   30.6743 H         1 UNK         0.1398 
     38 H14        24.6764    2.3242   33.0741 H         1 UNK         0.1398 
     39 H15        22.4440    2.6876   32.0966 H         1 UNK         0.1335 
     40 H16        27.9695    2.5822   33.7078 H         1 UNK         0.0416 
     41 H17        26.2890    2.8898   34.2074 H         1 UNK         0.0416 
     42 H18        26.6305    1.7361   32.8956 H         1 UNK         0.0416 
@<TRIPOS>BOND
     1    1    2 1    
     2    1   25 1    
     3    1   26 1    
     4    1   27 1    
     5    2    3 1    
     6    2   28 1    
     7    2   29 1    
     8    3    4 1    
     9    4   10 ar   
    10    4    5 ar   
    11    5    6 ar   
    12    6    7 ar   
    13    6   13 1    
    14    7    8 ar   
    15    7   30 1    
    16    8    9 1    
    17    8   10 ar   
    18    9   31 1    
    19    9   32 1    
    20   10   11 1    
    21   11   12 3    
    22   13   14 am   BACKBONE|DICT|INTERRES
    23   13   33 1    
    24   14   15 2    
    25   14   16 1    
    26   16   17 1    
    27   16   34 1    
    28   16   35 1    
    29   17   22 ar   
    30   17   18 ar   
    31   18   19 ar   
    32   18   36 1    
    33   19   20 ar   
    34   19   37 1    
    35   20   21 ar   
    36   20   23 1    
    37   21   22 ar   
    38   21   38 1    
    39   22   39 1    
    40   23   24 1    
    41   24   40 1    
    42   24   41 1    
    43   24   42 1    
@<TRIPOS>SUBSTRUCTURE
     1 UNK         1 GROUP             0       ****    0 ROOT    
@<TRIPOS>MOLECULE
18635-1
44   45    1
SMALL
USER_CHARGES


@<TRIPOS>ATOM
      1 C1         24.0733   12.4028   30.2323 C.3       1 UNK        -0.2248 
      2 C18        23.3271   11.0818   30.4341 C.3       1 UNK         0.2067 
      3 O1         22.2086   11.3387   31.2785 O.3       1 UNK        -0.3439 
      4 C2         21.4076   10.2889   31.6938 C.ar      1 UNK         0.5446 
      5 N1         21.7457    9.0394   31.2730 N.ar      1 UNK        -0.8110 
      6 C3         20.9690    8.0101   31.6444 C.ar      1 UNK         0.4367 
      7 C4         19.8628    8.1544   32.4699 C.ar      1 UNK        -0.2690 
      8 C5         19.5194    9.4254   32.8937 C.ar      1 UNK         0.3401 
      9 N2         18.3843    9.5057   33.6914 N.pl3     1 UNK        -0.8221 
     10 C6         20.2911   10.5310   32.5018 C.ar      1 UNK        -0.1080 
     11 C7         19.9686   11.9007   32.8839 C.1       1 UNK         0.2829 
     12 N3         19.7198   12.9914   33.1811 N.1       1 UNK        -0.4379 
     13 N4         21.4264    6.8283   31.0989 N.am      1 UNK        -0.3490 
     14 C8         20.8492    5.6257   31.0244 C.2       1 UNK         0.4548 
     15 O2         19.7218    5.3642   31.4396 O.2       1 UNK        -0.4950 
     16 C9         21.6453    4.5492   30.2959 C.3       1 UNK        -0.0988 
     17 C10        23.0487    4.3416   30.8592 C.ar      1 UNK        -0.0683 
     18 C11        24.1093    5.1752   30.4706 C.ar      1 UNK        -0.0635 
     19 C12        23.9206    6.3206   29.4917 C.3       1 UNK        -0.1288 
     20 C13        25.3879    4.9247   30.9874 C.ar      1 UNK        -0.1252 
     21 C14        25.5914    3.9088   31.9220 C.ar      1 UNK        -0.1185 
     22 C15        24.5221    3.1087   32.3472 C.ar      1 UNK        -0.0844 
     23 C16        24.7285    2.0307   33.3926 C.3       1 UNK        -0.1258 
     24 C17        23.2656    3.3183   31.7864 C.ar      1 UNK        -0.1070 
     25 H1         24.9321   12.2709   29.5744 H         1 UNK         0.0762 
     26 H2         23.4201   13.1517   29.7829 H         1 UNK         0.0762 
     27 H3         24.4313   12.7993   31.1825 H         1 UNK         0.0762 
     28 H4         22.9951   10.6835   29.4728 H         1 UNK         0.0470 
     29 H5         23.9950   10.3461   30.8882 H         1 UNK         0.0470 
     30 H6         19.2713    7.3044   32.7661 H         1 UNK         0.1685 
     31 H7         17.9030    8.6579   33.9746 H         1 UNK         0.3668 
     32 H8         17.9995   10.4112   33.9502 H         1 UNK         0.3668 
     33 H9         22.3061    6.9595   30.6347 H         1 UNK         0.2989 
     34 H10        21.0974    3.6091   30.3237 H         1 UNK         0.0919 
     35 H11        21.6812    4.8441   29.2542 H         1 UNK         0.0919 
     36 H12        23.0894    6.9631   29.7843 H         1 UNK         0.0699 
     37 H13        24.8059    6.9542   29.4277 H         1 UNK         0.0699 
     38 H14        23.7349    5.9152   28.5008 H         1 UNK         0.0699 
     39 H15        26.2304    5.5207   30.6644 H         1 UNK         0.1318 
     40 H16        26.5825    3.7337   32.3163 H         1 UNK         0.1308 
     41 H17        25.6882    1.5313   33.2505 H         1 UNK         0.0691 
     42 H18        24.7170    2.4684   34.3911 H         1 UNK         0.0691 
     43 H19        23.9521    1.2671   33.3425 H         1 UNK         0.0691 
     44 H20        22.4514    2.6636   32.0609 H         1 UNK         0.1281 
@<TRIPOS>BOND
     1    1    2 1    
     2    1   25 1    
     3    1   26 1    
     4    1   27 1    
     5    2    3 1    
     6    2   28 1    
     7    2   29 1    
     8    3    4 1    
     9    4   10 ar   
    10    4    5 ar   
    11    5    6 ar   
    12    6    7 ar   
    13    6   13 1    
    14    7    8 ar   
    15    7   30 1    
    16    8    9 1    
    17    8   10 ar   
    18    9   31 1    
    19    9   32 1    
    20   10   11 1    
    21   11   12 3    
    22   13   14 am   BACKBONE|DICT|INTERRES
    23   13   33 1    
    24   14   15 2    
    25   14   16 1    
    26   16   17 1    
    27   16   34 1    
    28   16   35 1    
    29   17   24 ar   
    30   17   18 ar   
    31   18   19 1    
    32   18   20 ar   
    33   19   36 1    
    34   19   37 1    
    35   19   38 1    
    36   20   21 ar   
    37   20   39 1    
    38   21   22 ar   
    39   21   40 1    
    40   22   23 1    
    41   22   24 ar   
    42   23   41 1    
    43   23   42 1    
    44   23   43 1    
    45   24   44 1    
@<TRIPOS>SUBSTRUCTURE
     1 UNK         1 GROUP             0       ****    0 ROOT    
@<TRIPOS>MOLECULE
17124-1
46   47    1
SMALL
USER_CHARGES


@<TRIPOS>ATOM
      1 C1         24.0733   12.4028   30.2323 C.3       1 UNK        -0.2248 
      2 C18        23.3271   11.0818   30.4341 C.3       1 UNK         0.2066 
      3 O1         22.2086   11.3387   31.2785 O.3       1 UNK        -0.3442 
      4 C2         21.4076   10.2889   31.6938 C.ar      1 UNK         0.5428 
      5 N1         21.7457    9.0394   31.2730 N.ar      1 UNK        -0.8055 
      6 C3         20.9690    8.0101   31.6444 C.ar      1 UNK         0.4338 
      7 C4         19.8628    8.1544   32.4699 C.ar      1 UNK        -0.2699 
      8 C5         19.5194    9.4254   32.8937 C.ar      1 UNK         0.3418 
      9 N2         18.3843    9.5057   33.6914 N.pl3     1 UNK        -0.8314 
     10 C6         20.2911   10.5310   32.5018 C.ar      1 UNK        -0.1072 
     11 C7         19.9686   11.9007   32.8839 C.1       1 UNK         0.2829 
     12 N3         19.7198   12.9914   33.1811 N.1       1 UNK        -0.4381 
     13 N4         21.4264    6.8283   31.0989 N.am      1 UNK        -0.3376 
     14 C8         20.8492    5.6257   31.0244 C.2       1 UNK         0.4639 
     15 O2         19.7218    5.3642   31.4396 O.2       1 UNK        -0.5081 
     16 C9         21.6453    4.5492   30.2959 C.3       1 UNK        -0.0920 
     17 C10        23.0487    4.3416   30.8592 C.ar      1 UNK        -0.0532 
     18 C11        24.1093    5.1752   30.4706 C.ar      1 UNK         0.1405 
     19 O3         23.8251    6.2111   29.5994 O.3       1 UNK        -0.3705 
     20 C12        24.7824    7.2540   29.4258 C.3       1 UNK         0.1389 
     21 C13        25.3879    4.9247   30.9874 C.ar      1 UNK        -0.1458 
     22 C14        25.5914    3.9088   31.9220 C.ar      1 UNK         0.0129 
     23 BR1        27.3537    3.6230   32.5903 Br        1 UNK        -0.1027 
     24 C15        24.5221    3.1087   32.3472 C.ar      1 UNK         0.1519 
     25 C16        23.2656    3.3183   31.7864 C.ar      1 UNK        -0.1500 
     26 O4         24.6165    2.1143   33.2977 O.3       1 UNK        -0.3519 
     27 C17        25.8225    1.9829   34.0425 C.3       1 UNK         0.1365 
     28 H1         24.9321   12.2709   29.5744 H         1 UNK         0.0761 
     29 H2         23.4201   13.1517   29.7829 H         1 UNK         0.0761 
     30 H3         24.4313   12.7993   31.1825 H         1 UNK         0.0761 
     31 H4         22.9948   10.6822   29.4734 H         1 UNK         0.0474 
     32 H5         23.9950   10.3470   30.8895 H         1 UNK         0.0474 
     33 H6         19.2672    7.3078   32.7668 H         1 UNK         0.1678 
     34 H7         17.9030    8.6579   33.9746 H         1 UNK         0.3701 
     35 H8         17.9995   10.4112   33.9502 H         1 UNK         0.3701 
     36 H9         22.3289    6.9367   30.6631 H         1 UNK         0.2999 
     37 H10        21.0979    3.6104   30.2963 H         1 UNK         0.0973 
     38 H11        21.7094    4.8701   29.2610 H         1 UNK         0.0973 
     39 H12        24.3494    8.0402   28.8073 H         1 UNK         0.0437 
     40 H13        25.0654    7.7073   30.3780 H         1 UNK         0.0437 
     41 H14        25.6789    6.8955   28.9178 H         1 UNK         0.0437 
     42 H15        26.2385    5.5106   30.6772 H         1 UNK         0.1515 
     43 H16        22.4415    2.6787   32.0616 H         1 UNK         0.1433 
     44 H17        25.6996    1.2001   34.7908 H         1 UNK         0.0431 
     45 H18        26.6593    1.6972   33.4036 H         1 UNK         0.0431 
     46 H19        26.0724    2.9044   34.5706 H         1 UNK         0.0431 
@<TRIPOS>BOND
     1    1    2 1    
     2    1   28 1    
     3    1   29 1    
     4    1   30 1    
     5    2    3 1    
     6    2   31 1    
     7    2   32 1    
     8    3    4 1    
     9    4   10 ar   
    10    4    5 ar   
    11    5    6 ar   
    12    6    7 ar   
    13    6   13 1    
    14    7    8 ar   
    15    7   33 1    
    16    8    9 1    
    17    8   10 ar   
    18    9   34 1    
    19    9   35 1    
    20   10   11 1    
    21   11   12 3    
    22   13   14 am   BACKBONE|DICT|INTERRES
    23   13   36 1    
    24   14   15 2    
    25   14   16 1    
    26   16   17 1    
    27   16   37 1    
    28   16   38 1    
    29   17   25 ar   
    30   17   18 ar   
    31   18   19 1    
    32   18   21 ar   
    33   19   20 1    
    34   20   39 1    
    35   20   40 1    
    36   20   41 1    
    37   21   22 ar   
    38   21   42 1    
    39   22   23 1    
    40   22   24 ar   
    41   24   25 ar   
    42   24   26 1    
    43   25   43 1    
    44   26   27 1    
    45   27   44 1    
    46   27   45 1    
    47   27   46 1    
@<TRIPOS>SUBSTRUCTURE
     1 UNK         1 GROUP             0       ****    0 ROOT    
@<TRIPOS>MOLECULE
18625-1
38   39    1
SMALL
USER_CHARGES


@<TRIPOS>ATOM
      1 C1         24.0733   12.4028   30.2323 C.3       1 UNK        -0.2248 
      2 C16        23.3271   11.0818   30.4341 C.3       1 UNK         0.2064 
      3 O1         22.2086   11.3387   31.2785 O.3       1 UNK        -0.3439 
      4 C2         21.4076   10.2889   31.6938 C.ar      1 UNK         0.5436 
      5 N1         21.7457    9.0394   31.2730 N.ar      1 UNK        -0.8059 
      6 C3         20.9690    8.0101   31.6444 C.ar      1 UNK         0.4343 
      7 C4         19.8628    8.1544   32.4699 C.ar      1 UNK        -0.2696 
      8 C5         19.5194    9.4254   32.8937 C.ar      1 UNK         0.3400 
      9 N2         18.3843    9.5057   33.6914 N.pl3     1 UNK        -0.8224 
     10 C6         20.2911   10.5310   32.5018 C.ar      1 UNK        -0.1076 
     11 C7         19.9686   11.9007   32.8839 C.1       1 UNK         0.2829 
     12 N3         19.7198   12.9914   33.1811 N.1       1 UNK        -0.4379 
     13 N4         21.4264    6.8283   31.0989 N.am      1 UNK        -0.3411 
     14 C8         20.8492    5.6257   31.0244 C.2       1 UNK         0.4596 
     15 O2         19.7218    5.3642   31.4396 O.2       1 UNK        -0.4979 
     16 C9         21.6453    4.5492   30.2959 C.3       1 UNK        -0.1016 
     17 C10        23.0487    4.3416   30.8592 C.ar      1 UNK        -0.0621 
     18 C11        24.1093    5.1752   30.4706 C.ar      1 UNK         0.1758 
     19 CL1        23.8728    6.4907   29.3723 Cl        1 UNK        -0.2422 
     20 C12        25.3879    4.9247   30.9874 C.ar      1 UNK        -0.1195 
     21 C13        25.5914    3.9088   31.9220 C.ar      1 UNK        -0.1142 
     22 C14        24.5221    3.1087   32.3472 C.ar      1 UNK        -0.1260 
     23 C15        23.2656    3.3183   31.7864 C.ar      1 UNK        -0.1009 
     24 H1         24.9321   12.2709   29.5744 H         1 UNK         0.0761 
     25 H2         23.4201   13.1517   29.7829 H         1 UNK         0.0761 
     26 H3         24.4313   12.7993   31.1825 H         1 UNK         0.0761 
     27 H4         22.9947   10.6827   29.4732 H         1 UNK         0.0476 
     28 H5         23.9954   10.3463   30.8881 H         1 UNK         0.0476 
     29 H6         19.2662    7.3080   32.7651 H         1 UNK         0.1676 
     30 H7         17.9995   10.4112   33.9502 H         1 UNK         0.3667 
     31 H8         17.9030    8.6579   33.9746 H         1 UNK         0.3667 
     32 H9         22.3206    6.9640   30.6582 H         1 UNK         0.2987 
     33 H10        21.1002    3.6080   30.3197 H         1 UNK         0.0975 
     34 H11        21.6929    4.8431   29.2513 H         1 UNK         0.0975 
     35 H12        26.2218    5.5285   30.6594 H         1 UNK         0.1460 
     36 H13        26.5801    3.7288   32.3216 H         1 UNK         0.1380 
     37 H14        24.6832    2.3368   33.0873 H         1 UNK         0.1364 
     38 H15        22.4576    2.6581   32.0698 H         1 UNK         0.1363 
@<TRIPOS>BOND
     1    1    2 1    
     2    1   24 1    
     3    1   25 1    
     4    1   26 1    
     5    2    3 1    
     6    2   27 1    
     7    2   28 1    
     8    3    4 1    
     9    4   10 ar   
    10    4    5 ar   
    11    5    6 ar   
    12    6    7 ar   
    13    6   13 1    
    14    7    8 ar   
    15    7   29 1    
    16    8    9 1    
    17    8   10 ar   
    18    9   30 1    
    19    9   31 1    
    20   10   11 1    
    21   11   12 3    
    22   13   14 am   BACKBONE|DICT|INTERRES
    23   13   32 1    
    24   14   15 2    
    25   14   16 1    
    26   16   17 1    
    27   16   33 1    
    28   16   34 1    
    29   17   23 ar   
    30   17   18 ar   
    31   18   19 1    
    32   18   20 ar   
    33   20   21 ar   
    34   20   35 1    
    35   21   22 ar   
    36   21   36 1    
    37   22   23 ar   
    38   22   37 1    
    39   23   38 1    
@<TRIPOS>SUBSTRUCTURE
     1 UNK         1 GROUP             0       ****    0 ROOT    
@<TRIPOS>MOLECULE
18659-1
50   51    1
SMALL
USER_CHARGES


@<TRIPOS>ATOM
      1 C1         25.9253   13.3171   29.1587 C.3       1 UNK         0.1391 
      2 O1         25.1668   12.1935   29.4169 O.3       1 UNK        -0.4505 
      3 C19        24.0733   12.4028   30.2323 C.3       1 UNK         0.1417 
      4 C2         23.3271   11.0818   30.4341 C.3       1 UNK         0.1615 
      5 O2         22.2086   11.3387   31.2785 O.3       1 UNK        -0.3486 
      6 C3         21.4076   10.2889   31.6938 C.ar      1 UNK         0.5444 
      7 N1         21.7457    9.0394   31.2730 N.ar      1 UNK        -0.7997 
      8 C4         20.9690    8.0101   31.6444 C.ar      1 UNK         0.4357 
      9 C5         19.8628    8.1544   32.4699 C.ar      1 UNK        -0.2690 
     10 C6         19.5194    9.4254   32.8937 C.ar      1 UNK         0.3398 
     11 N2         18.3843    9.5057   33.6914 N.pl3     1 UNK        -0.8227 
     12 C7         20.2911   10.5310   32.5018 C.ar      1 UNK        -0.1090 
     13 C8         19.9686   11.9007   32.8839 C.1       1 UNK         0.2834 
     14 N3         19.7198   12.9914   33.1811 N.1       1 UNK        -0.4402 
     15 N4         21.4264    6.8283   31.0989 N.am      1 UNK        -0.3401 
     16 C9         20.8492    5.6257   31.0244 C.2       1 UNK         0.4614 
     17 O3         19.7218    5.3642   31.4396 O.2       1 UNK        -0.5019 
     18 C10        21.6453    4.5492   30.2959 C.3       1 UNK        -0.0879 
     19 C11        23.0487    4.3416   30.8592 C.ar      1 UNK        -0.0679 
     20 C12        24.1093    5.1752   30.4706 C.ar      1 UNK         0.1396 
     21 O4         23.8251    6.2111   29.5994 O.3       1 UNK        -0.3727 
     22 C13        24.7824    7.2540   29.4258 C.3       1 UNK         0.1411 
     23 C14        25.3879    4.9247   30.9874 C.ar      1 UNK        -0.1678 
     24 C15        25.5914    3.9088   31.9220 C.ar      1 UNK        -0.1607 
     25 C16        24.5221    3.1087   32.3472 C.ar      1 UNK         0.1240 
     26 C17        23.2656    3.3183   31.7864 C.ar      1 UNK        -0.1057 
     27 O5         24.6165    2.1143   33.2977 O.3       1 UNK        -0.3662 
     28 C18        25.8225    1.9829   34.0425 C.3       1 UNK         0.1394 
     29 H1         26.7601   13.0508   28.5104 H         1 UNK         0.0339 
     30 H2         25.3071   14.0672   28.6654 H         1 UNK         0.0339 
     31 H3         26.3076   13.7207   30.0962 H         1 UNK         0.0339 
     32 H4         24.4073   12.7825   31.1978 H         1 UNK         0.0395 
     33 H5         23.4068   13.1291   29.7670 H         1 UNK         0.0395 
     34 H6         22.9931   10.7020   29.4686 H         1 UNK         0.0606 
     35 H7         23.9936   10.3555   30.8993 H         1 UNK         0.0606 
     36 H8         19.2654    7.3087   32.7651 H         1 UNK         0.1691 
     37 H9         17.9995   10.4112   33.9502 H         1 UNK         0.3668 
     38 H10        17.9030    8.6579   33.9746 H         1 UNK         0.3668 
     39 H11        22.3314    6.9314   30.6661 H         1 UNK         0.2999 
     40 H12        21.0994    3.6092   30.2965 H         1 UNK         0.0960 
     41 H13        21.7117    4.8685   29.2602 H         1 UNK         0.0960 
     42 H14        24.3494    8.0402   28.8073 H         1 UNK         0.0413 
     43 H15        25.6789    6.8955   28.9178 H         1 UNK         0.0413 
     44 H16        25.0654    7.7073   30.3780 H         1 UNK         0.0413 
     45 H17        26.2367    5.5175   30.6828 H         1 UNK         0.1363 
     46 H18        26.5798    3.7292   32.3198 H         1 UNK         0.1348 
     47 H19        22.4427    2.6809   32.0695 H         1 UNK         0.1482 
     48 H20        25.6996    1.2001   34.7908 H         1 UNK         0.0399 
     49 H21        26.6593    1.6972   33.4036 H         1 UNK         0.0399 
     50 H22        26.0724    2.9044   34.5706 H         1 UNK         0.0399 
@<TRIPOS>BOND
     1    1    2 1    
     2    1   29 1    
     3    1   30 1    
     4    1   31 1    
     5    2    3 1    
     6    3    4 1    
     7    3   32 1    
     8    3   33 1    
     9    4    5 1    
    10    4   34 1    
    11    4   35 1    
    12    5    6 1    
    13    6   12 ar   
    14    6    7 ar   
    15    7    8 ar   
    16    8    9 ar   
    17    8   15 1    
    18    9   10 ar   
    19    9   36 1    
    20   10   11 1    
    21   10   12 ar   
    22   11   37 1    
    23   11   38 1    
    24   12   13 1    
    25   13   14 3    
    26   15   16 am   BACKBONE|DICT|INTERRES
    27   15   39 1    
    28   16   17 2    
    29   16   18 1    
    30   18   19 1    
    31   18   40 1    
    32   18   41 1    
    33   19   26 ar   
    34   19   20 ar   
    35   20   21 1    
    36   20   23 ar   
    37   21   22 1    
    38   22   42 1    
    39   22   43 1    
    40   22   44 1    
    41   23   24 ar   
    42   23   45 1    
    43   24   25 ar   
    44   24   46 1    
    45   25   26 ar   
    46   25   27 1    
    47   26   47 1    
    48   27   28 1    
    49   28   48 1    
    50   28   49 1    
    51   28   50 1    
@<TRIPOS>SUBSTRUCTURE
     1 UNK         1 GROUP             0       ****    0 ROOT    
@<TRIPOS>MOLECULE
18637-1
53   54    1
SMALL
USER_CHARGES


@<TRIPOS>ATOM
      1 C1         24.0733   12.4028   30.2323 C.3       1 UNK        -0.2248 
      2 C20        23.3271   11.0818   30.4341 C.3       1 UNK         0.2066 
      3 O1         22.2086   11.3387   31.2785 O.3       1 UNK        -0.3446 
      4 C2         21.4076   10.2889   31.6938 C.ar      1 UNK         0.5431 
      5 N1         21.7457    9.0394   31.2730 N.ar      1 UNK        -0.8057 
      6 C3         20.9690    8.0101   31.6444 C.ar      1 UNK         0.4359 
      7 C4         19.8628    8.1544   32.4699 C.ar      1 UNK        -0.2704 
      8 C5         19.5194    9.4254   32.8937 C.ar      1 UNK         0.3397 
      9 N2         18.3843    9.5057   33.6914 N.pl3     1 UNK        -0.8228 
     10 C6         20.2911   10.5310   32.5018 C.ar      1 UNK        -0.1090 
     11 C7         19.9686   11.9007   32.8839 C.1       1 UNK         0.2837 
     12 N3         19.7198   12.9914   33.1811 N.1       1 UNK        -0.4399 
     13 N4         21.4264    6.8283   31.0989 N.am      1 UNK        -0.3402 
     14 C8         20.8492    5.6257   31.0244 C.2       1 UNK         0.4607 
     15 O2         19.7218    5.3642   31.4396 O.2       1 UNK        -0.5006 
     16 C9         21.6453    4.5492   30.2959 C.3       1 UNK        -0.0867 
     17 C10        23.0487    4.3416   30.8592 C.ar      1 UNK        -0.0825 
     18 C11        24.1093    5.1752   30.4706 C.ar      1 UNK         0.1622 
     19 O3         23.8251    6.2111   29.5994 O.3       1 UNK        -0.3717 
     20 C12        24.7824    7.2540   29.4258 C.3       1 UNK         0.1381 
     21 C13        25.3879    4.9247   30.9874 C.ar      1 UNK        -0.1749 
     22 C14        25.5914    3.9088   31.9220 C.ar      1 UNK         0.0630 
     23 C15        24.5221    3.1087   32.3472 C.ar      1 UNK         0.0934 
     24 C16        23.2656    3.3183   31.7864 C.ar      1 UNK        -0.1328 
     25 O4         24.6165    2.1143   33.2977 O.3       1 UNK        -0.3802 
     26 C17        25.8225    1.9829   34.0425 C.3       1 UNK         0.1428 
     27 N5         26.9382    3.7149   32.4514 N.am      1 UNK        -0.3414 
     28 C18        27.9201    4.6163   32.4189 C.2       1 UNK         0.4563 
     29 O5         27.7847    5.7323   31.9258 O.2       1 UNK        -0.5256 
     30 C19        29.1772    4.0948   33.0496 C.3       1 UNK        -0.2018 
     31 H1         24.4313   12.7993   31.1825 H         1 UNK         0.0758 
     32 H2         24.9321   12.2709   29.5744 H         1 UNK         0.0758 
     33 H3         23.4201   13.1517   29.7829 H         1 UNK         0.0758 
     34 H4         22.9931   10.6825   29.4752 H         1 UNK         0.0475 
     35 H5         23.9950   10.3501   30.8916 H         1 UNK         0.0475 
     36 H6         19.2716    7.3005   32.7650 H         1 UNK         0.1673 
     37 H7         17.9995   10.4112   33.9502 H         1 UNK         0.3663 
     38 H8         17.9030    8.6579   33.9746 H         1 UNK         0.3663 
     39 H9         22.3313    6.8853   30.6516 H         1 UNK         0.2986 
     40 H10        21.0931    3.6096   30.3413 H         1 UNK         0.0936 
     41 H11        21.7058    4.8074   29.2383 H         1 UNK         0.0936 
     42 H12        25.0654    7.7073   30.3780 H         1 UNK         0.0449 
     43 H13        25.6789    6.8955   28.9178 H         1 UNK         0.0449 
     44 H14        24.3494    8.0402   28.8073 H         1 UNK         0.0449 
     45 H15        26.2370    5.5238   30.6972 H         1 UNK         0.1601 
     46 H16        22.4431    2.6924   32.1024 H         1 UNK         0.1400 
     47 H17        25.6996    1.2001   34.7908 H         1 UNK         0.0416 
     48 H18        26.6593    1.6972   33.4036 H         1 UNK         0.0416 
     49 H19        26.0724    2.9044   34.5706 H         1 UNK         0.0416 
     50 H20        27.0061    2.7877   32.8461 H         1 UNK         0.2951 
     51 H21        29.0114    3.0769   33.4024 H         1 UNK         0.0892 
     52 H22        29.9812    4.0979   32.3136 H         1 UNK         0.0892 
     53 H23        29.4524    4.7307   33.8910 H         1 UNK         0.0892 
@<TRIPOS>BOND
     1    1    2 1    
     2    1   31 1    
     3    1   32 1    
     4    1   33 1    
     5    2    3 1    
     6    2   34 1    
     7    2   35 1    
     8    3    4 1    
     9    4   10 ar   
    10    4    5 ar   
    11    5    6 ar   
    12    6    7 ar   
    13    6   13 1    
    14    7    8 ar   
    15    7   36 1    
    16    8    9 1    
    17    8   10 ar   
    18    9   37 1    
    19    9   38 1    
    20   10   11 1    
    21   11   12 3    
    22   13   14 am   BACKBONE|DICT|INTERRES
    23   13   39 1    
    24   14   15 2    
    25   14   16 1    
    26   16   17 1    
    27   16   40 1    
    28   16   41 1    
    29   17   24 ar   
    30   17   18 ar   
    31   18   19 1    
    32   18   21 ar   
    33   19   20 1    
    34   20   42 1    
    35   20   43 1    
    36   20   44 1    
    37   21   22 ar   
    38   21   45 1    
    39   22   23 ar   
    40   22   27 1    
    41   23   24 ar   
    42   23   25 1    
    43   24   46 1    
    44   25   26 1    
    45   26   47 1    
    46   26   48 1    
    47   26   49 1    
    48   27   28 am   BACKBONE|DICT|INTERRES
    49   27   50 1    
    50   28   29 2    
    51   28   30 1    
    52   30   51 1    
    53   30   52 1    
    54   30   53 1    
@<TRIPOS>SUBSTRUCTURE
     1 UNK         1 GROUP             0       ****    0 ROOT    
@<TRIPOS>MOLECULE
18638-1
52   53    1
SMALL
USER_CHARGES


@<TRIPOS>ATOM
      1 C1         24.0733   12.4028   30.2323 C.3       1 UNK        -0.2248 
      2 C19        23.3271   11.0818   30.4341 C.3       1 UNK         0.2066 
      3 O1         22.2086   11.3387   31.2785 O.3       1 UNK        -0.3437 
      4 C2         21.4076   10.2889   31.6938 C.ar      1 UNK         0.5431 
      5 N1         21.7457    9.0394   31.2730 N.ar      1 UNK        -0.8054 
      6 C3         20.9690    8.0101   31.6444 C.ar      1 UNK         0.4323 
      7 C4         19.8628    8.1544   32.4699 C.ar      1 UNK        -0.2696 
      8 C5         19.5194    9.4254   32.8937 C.ar      1 UNK         0.3422 
      9 N2         18.3843    9.5057   33.6914 N.pl3     1 UNK        -0.8309 
     10 C6         20.2911   10.5310   32.5018 C.ar      1 UNK        -0.1060 
     11 C7         19.9686   11.9007   32.8839 C.1       1 UNK         0.2822 
     12 N3         19.7198   12.9914   33.1811 N.1       1 UNK        -0.4365 
     13 N4         21.4264    6.8283   31.0989 N.am      1 UNK        -0.3358 
     14 C8         20.8492    5.6257   31.0244 C.2       1 UNK         0.4653 
     15 O2         19.7218    5.3642   31.4396 O.2       1 UNK        -0.5055 
     16 C9         21.6453    4.5492   30.2959 C.3       1 UNK        -0.0989 
     17 C10        23.0487    4.3416   30.8592 C.ar      1 UNK        -0.0133 
     18 C11        24.1093    5.1752   30.4706 C.ar      1 UNK         0.1248 
     19 O3         23.8251    6.2111   29.5994 O.3       1 UNK        -0.3722 
     20 C12        24.7824    7.2540   29.4258 C.3       1 UNK         0.1371 
     21 C13        25.3879    4.9247   30.9874 C.ar      1 UNK        -0.1590 
     22 C14        25.5914    3.9088   31.9220 C.ar      1 UNK        -0.0245 
     23 S1         27.2334    3.6721   32.5672 S.o2      1 UNK         0.8717 
     24 O4         27.2231    2.4429   33.3679 O.2       1 UNK        -0.5286 
     25 O5         28.1772    3.8623   31.4603 O.2       1 UNK        -0.5286 
     26 C15        27.4319    5.0423   33.6860 C.3       1 UNK        -0.3904 
     27 C16        24.5221    3.1087   32.3472 C.ar      1 UNK         0.1427 
     28 C17        23.2656    3.3183   31.7864 C.ar      1 UNK        -0.1696 
     29 O6         24.6165    2.1143   33.2977 O.3       1 UNK        -0.3626 
     30 C18        25.8225    1.9829   34.0425 C.3       1 UNK         0.1420 
     31 H1         23.4201   13.1517   29.7829 H         1 UNK         0.0763 
     32 H2         24.4313   12.7993   31.1825 H         1 UNK         0.0763 
     33 H3         24.9321   12.2709   29.5744 H         1 UNK         0.0763 
     34 H4         22.9929   10.6828   29.4751 H         1 UNK         0.0472 
     35 H5         23.9949   10.3497   30.8913 H         1 UNK         0.0472 
     36 H6         19.2718    7.3005   32.7652 H         1 UNK         0.1677 
     37 H7         17.9995   10.4112   33.9502 H         1 UNK         0.3704 
     38 H8         17.9030    8.6579   33.9746 H         1 UNK         0.3704 
     39 H9         22.3314    6.8853   30.6516 H         1 UNK         0.2995 
     40 H10        21.0931    3.6096   30.3416 H         1 UNK         0.0993 
     41 H11        21.7057    4.8072   29.2382 H         1 UNK         0.0993 
     42 H12        25.6789    6.8955   28.9178 H         1 UNK         0.0462 
     43 H13        24.3494    8.0402   28.8073 H         1 UNK         0.0462 
     44 H14        25.0654    7.7073   30.3780 H         1 UNK         0.0462 
     45 H15        26.2369    5.5240   30.6973 H         1 UNK         0.1641 
     46 H16        28.4193    4.9961   34.1454 H         1 UNK         0.1658 
     47 H17        27.3304    5.9780   33.1361 H         1 UNK         0.1658 
     48 H18        26.6676    4.9918   34.4615 H         1 UNK         0.1658 
     49 H19        22.4432    2.6924   32.1024 H         1 UNK         0.1440 
     50 H20        26.0724    2.9044   34.5706 H         1 UNK         0.0472 
     51 H21        26.6593    1.6972   33.4036 H         1 UNK         0.0472 
     52 H22        25.6996    1.2001   34.7908 H         1 UNK         0.0472 
@<TRIPOS>BOND
     1    1    2 1    
     2    1   31 1    
     3    1   32 1    
     4    1   33 1    
     5    2    3 1    
     6    2   34 1    
     7    2   35 1    
     8    3    4 1    
     9    4   10 ar   
    10    4    5 ar   
    11    5    6 ar   
    12    6    7 ar   
    13    6   13 1    
    14    7    8 ar   
    15    7   36 1    
    16    8    9 1    
    17    8   10 ar   
    18    9   37 1    
    19    9   38 1    
    20   10   11 1    
    21   11   12 3    
    22   13   14 am   BACKBONE|DICT|INTERRES
    23   13   39 1    
    24   14   15 2    
    25   14   16 1    
    26   16   17 1    
    27   16   40 1    
    28   16   41 1    
    29   17   28 ar   
    30   17   18 ar   
    31   18   19 1    
    32   18   21 ar   
    33   19   20 1    
    34   20   42 1    
    35   20   43 1    
    36   20   44 1    
    37   21   22 ar   
    38   21   45 1    
    39   22   23 1    
    40   22   27 ar   
    41   23   24 2    
    42   23   25 2    
    43   23   26 1    
    44   26   46 1    
    45   26   47 1    
    46   26   48 1    
    47   27   28 ar   
    48   27   29 1    
    49   28   49 1    
    50   29   30 1    
    51   30   50 1    
    52   30   51 1    
    53   30   52 1    
@<TRIPOS>SUBSTRUCTURE
     1 UNK         1 GROUP             0       ****    0 ROOT    
@<TRIPOS>MOLECULE
18652-1
55   56    1
SMALL
USER_CHARGES


@<TRIPOS>ATOM
      1 C1         22.8677   10.5331   29.1158 C.3       1 UNK        -0.2312 
      2 C20        23.3271   11.0818   30.4341 C.3       1 UNK         0.2633 
      3 C2         24.0733   12.4028   30.2323 C.3       1 UNK        -0.2312 
      4 O1         22.2086   11.3387   31.2785 O.3       1 UNK        -0.3463 
      5 C3         21.4076   10.2889   31.6938 C.ar      1 UNK         0.5467 
      6 N1         21.7457    9.0394   31.2730 N.ar      1 UNK        -0.8063 
      7 C4         20.9690    8.0101   31.6444 C.ar      1 UNK         0.4327 
      8 C5         19.8628    8.1544   32.4699 C.ar      1 UNK        -0.2706 
      9 C6         19.5194    9.4254   32.8937 C.ar      1 UNK         0.3400 
     10 N2         18.3843    9.5057   33.6914 N.pl3     1 UNK        -0.8216 
     11 C7         20.2911   10.5310   32.5018 C.ar      1 UNK        -0.1080 
     12 C8         19.9686   11.9007   32.8839 C.1       1 UNK         0.2830 
     13 N3         19.7198   12.9914   33.1811 N.1       1 UNK        -0.4379 
     14 N4         21.4264    6.8283   31.0989 N.am      1 UNK        -0.3371 
     15 C9         20.8492    5.6257   31.0244 C.2       1 UNK         0.4633 
     16 O2         19.7218    5.3642   31.4396 O.2       1 UNK        -0.4995 
     17 C10        21.6453    4.5492   30.2959 C.3       1 UNK        -0.0988 
     18 C11        23.0487    4.3416   30.8592 C.ar      1 UNK        -0.0133 
     19 C12        24.1093    5.1752   30.4706 C.ar      1 UNK         0.1254 
     20 O3         23.8251    6.2111   29.5994 O.3       1 UNK        -0.3721 
     21 C13        24.7824    7.2540   29.4258 C.3       1 UNK         0.1372 
     22 C14        25.3879    4.9247   30.9874 C.ar      1 UNK        -0.1587 
     23 C15        25.5914    3.9088   31.9220 C.ar      1 UNK        -0.0241 
     24 S1         27.2334    3.6723   32.5674 S.o2      1 UNK         0.8718 
     25 O4         27.2231    2.4432   33.3682 O.2       1 UNK        -0.5282 
     26 O5         28.1772    3.8624   31.4605 O.2       1 UNK        -0.5282 
     27 C16        27.4317    5.0427   33.6860 C.3       1 UNK        -0.3909 
     28 C17        24.5221    3.1087   32.3472 C.ar      1 UNK         0.1426 
     29 C18        23.2656    3.3183   31.7864 C.ar      1 UNK        -0.1695 
     30 O6         24.6165    2.1143   33.2977 O.3       1 UNK        -0.3625 
     31 C19        25.8225    1.9829   34.0425 C.3       1 UNK         0.1421 
     32 H1         23.7326   10.3415   28.4807 H         1 UNK         0.0738 
     33 H2         22.3236    9.6029   29.2792 H         1 UNK         0.0738 
     34 H3         22.2130   11.2563   28.6295 H         1 UNK         0.0738 
     35 H4         23.9950   10.3498   30.8914 H         1 UNK         0.0659 
     36 H5         24.4313   12.7993   31.1825 H         1 UNK         0.0738 
     37 H6         24.9321   12.2709   29.5744 H         1 UNK         0.0738 
     38 H7         23.4201   13.1517   29.7829 H         1 UNK         0.0738 
     39 H8         19.2716    7.3006   32.7650 H         1 UNK         0.1669 
     40 H9         17.9030    8.6579   33.9746 H         1 UNK         0.3665 
     41 H10        17.9995   10.4112   33.9502 H         1 UNK         0.3665 
     42 H11        22.3313    6.8854   30.6515 H         1 UNK         0.2982 
     43 H12        21.0931    3.6096   30.3418 H         1 UNK         0.0983 
     44 H13        21.7056    4.8070   29.2381 H         1 UNK         0.0983 
     45 H14        25.6789    6.8955   28.9178 H         1 UNK         0.0462 
     46 H15        24.3494    8.0402   28.8073 H         1 UNK         0.0462 
     47 H16        25.0654    7.7073   30.3780 H         1 UNK         0.0462 
     48 H17        26.2370    5.5239   30.6972 H         1 UNK         0.1642 
     49 H18        28.4190    4.9966   34.1455 H         1 UNK         0.1657 
     50 H19        27.3302    5.9783   33.1360 H         1 UNK         0.1657 
     51 H20        26.6673    4.9923   34.4614 H         1 UNK         0.1657 
     52 H21        22.4431    2.6924   32.1025 H         1 UNK         0.1436 
     53 H22        26.0724    2.9044   34.5706 H         1 UNK         0.0470 
     54 H23        25.6996    1.2001   34.7908 H         1 UNK         0.0470 
     55 H24        26.6593    1.6972   33.4036 H         1 UNK         0.0470 
@<TRIPOS>BOND
     1    1    2 1    
     2    1   32 1    
     3    1   33 1    
     4    1   34 1    
     5    2    3 1    
     6    2    4 1    
     7    2   35 1    
     8    3   36 1    
     9    3   37 1    
    10    3   38 1    
    11    4    5 1    
    12    5   11 ar   
    13    5    6 ar   
    14    6    7 ar   
    15    7    8 ar   
    16    7   14 1    
    17    8    9 ar   
    18    8   39 1    
    19    9   10 1    
    20    9   11 ar   
    21   10   40 1    
    22   10   41 1    
    23   11   12 1    
    24   12   13 3    
    25   14   15 am   BACKBONE|DICT|INTERRES
    26   14   42 1    
    27   15   16 2    
    28   15   17 1    
    29   17   18 1    
    30   17   43 1    
    31   17   44 1    
    32   18   29 ar   
    33   18   19 ar   
    34   19   20 1    
    35   19   22 ar   
    36   20   21 1    
    37   21   45 1    
    38   21   46 1    
    39   21   47 1    
    40   22   23 ar   
    41   22   48 1    
    42   23   24 1    
    43   23   28 ar   
    44   24   25 2    
    45   24   26 2    
    46   24   27 1    
    47   27   49 1    
    48   27   50 1    
    49   27   51 1    
    50   28   29 ar   
    51   28   30 1    
    52   29   52 1    
    53   30   31 1    
    54   31   53 1    
    55   31   54 1    
    56   31   55 1    
@<TRIPOS>SUBSTRUCTURE
     1 UNK         1 GROUP             0       ****    0 ROOT    
@<TRIPOS>MOLECULE
18627-1
38   39    1
SMALL
USER_CHARGES


@<TRIPOS>ATOM
      1 C1         24.0733   12.4028   30.2323 C.3       1 UNK        -0.2248 
      2 C16        23.3271   11.0818   30.4341 C.3       1 UNK         0.2066 
      3 O1         22.2086   11.3387   31.2785 O.3       1 UNK        -0.3435 
      4 C2         21.4076   10.2889   31.6938 C.ar      1 UNK         0.5446 
      5 N1         21.7457    9.0394   31.2730 N.ar      1 UNK        -0.8106 
      6 C3         20.9690    8.0101   31.6444 C.ar      1 UNK         0.4331 
      7 C4         19.8628    8.1544   32.4699 C.ar      1 UNK        -0.2686 
      8 C5         19.5194    9.4254   32.8937 C.ar      1 UNK         0.3403 
      9 N2         18.3843    9.5057   33.6914 N.pl3     1 UNK        -0.8215 
     10 C6         20.2911   10.5310   32.5018 C.ar      1 UNK        -0.1068 
     11 C7         19.9686   11.9007   32.8839 C.1       1 UNK         0.2822 
     12 N3         19.7198   12.9914   33.1811 N.1       1 UNK        -0.4364 
     13 N4         21.4264    6.8283   31.0989 N.am      1 UNK        -0.3421 
     14 C8         20.8492    5.6257   31.0244 C.2       1 UNK         0.4571 
     15 O2         19.7218    5.3642   31.4396 O.2       1 UNK        -0.4976 
     16 C9         21.6453    4.5492   30.2959 C.3       1 UNK        -0.1012 
     17 C10        23.0487    4.3416   30.8592 C.ar      1 UNK        -0.0758 
     18 C11        24.1093    5.1752   30.4706 C.ar      1 UNK        -0.1037 
     19 C12        25.3879    4.9247   30.9874 C.ar      1 UNK        -0.1189 
     20 C13        25.5914    3.9088   31.9220 C.ar      1 UNK         0.1645 
     21 CL1        27.1634    3.6317   32.5717 Cl        1 UNK        -0.2389 
     22 C14        24.5221    3.1087   32.3472 C.ar      1 UNK        -0.1189 
     23 C15        23.2656    3.3183   31.7864 C.ar      1 UNK        -0.1037 
     24 H1         24.9321   12.2709   29.5744 H         1 UNK         0.0764 
     25 H2         23.4201   13.1517   29.7829 H         1 UNK         0.0764 
     26 H3         24.4313   12.7993   31.1825 H         1 UNK         0.0764 
     27 H4         22.9953   10.6839   29.4725 H         1 UNK         0.0470 
     28 H5         23.9938   10.3455   30.8889 H         1 UNK         0.0470 
     29 H6         19.2779    7.3034   32.7765 H         1 UNK         0.1690 
     30 H7         17.9030    8.6579   33.9746 H         1 UNK         0.3671 
     31 H8         17.9995   10.4112   33.9502 H         1 UNK         0.3671 
     32 H9         22.3474    6.9287   30.7127 H         1 UNK         0.2987 
     33 H10        21.0677    3.6264   30.3382 H         1 UNK         0.0957 
     34 H11        21.6980    4.8249   29.2464 H         1 UNK         0.0957 
     35 H12        23.9358    5.9959   29.7873 H         1 UNK         0.1373 
     36 H13        26.2343    5.5167   30.6688 H         1 UNK         0.1464 
     37 H14        24.6899    2.3499   33.0974 H         1 UNK         0.1464 
     38 H15        22.4560    2.6652   32.0825 H         1 UNK         0.1373 
@<TRIPOS>BOND
     1    1    2 1    
     2    1   24 1    
     3    1   25 1    
     4    1   26 1    
     5    2    3 1    
     6    2   27 1    
     7    2   28 1    
     8    3    4 1    
     9    4   10 ar   
    10    4    5 ar   
    11    5    6 ar   
    12    6    7 ar   
    13    6   13 1    
    14    7    8 ar   
    15    7   29 1    
    16    8    9 1    
    17    8   10 ar   
    18    9   30 1    
    19    9   31 1    
    20   10   11 1    
    21   11   12 3    
    22   13   14 am   BACKBONE|DICT|INTERRES
    23   13   32 1    
    24   14   15 2    
    25   14   16 1    
    26   16   17 1    
    27   16   33 1    
    28   16   34 1    
    29   17   23 ar   
    30   17   18 ar   
    31   18   19 ar   
    32   18   35 1    
    33   19   20 ar   
    34   19   36 1    
    35   20   21 1    
    36   20   22 ar   
    37   22   23 ar   
    38   22   37 1    
    39   23   38 1    
@<TRIPOS>SUBSTRUCTURE
     1 UNK         1 GROUP             0       ****    0 ROOT    
@<TRIPOS>MOLECULE
18658-1
47   48    1
SMALL
USER_CHARGES


@<TRIPOS>ATOM
      1 O1         25.1668   12.1935   29.4169 O.3       1 UNK        -0.6569 
      2 C1         24.0733   12.4028   30.2323 C.3       1 UNK         0.1152 
      3 C2         23.3271   11.0818   30.4341 C.3       1 UNK         0.1619 
      4 O5         22.2086   11.3387   31.2785 O.3       1 UNK        -0.3499 
      5 C3         21.4076   10.2889   31.6938 C.ar      1 UNK         0.5444 
      6 N1         21.7457    9.0394   31.2730 N.ar      1 UNK        -0.8002 
      7 C4         20.9690    8.0101   31.6444 C.ar      1 UNK         0.4360 
      8 C5         19.8628    8.1544   32.4699 C.ar      1 UNK        -0.2688 
      9 C6         19.5194    9.4254   32.8937 C.ar      1 UNK         0.3398 
     10 N2         18.3843    9.5057   33.6914 N.pl3     1 UNK        -0.8224 
     11 C7         20.2911   10.5310   32.5018 C.ar      1 UNK        -0.1090 
     12 C8         19.9686   11.9007   32.8839 C.1       1 UNK         0.2833 
     13 N3         19.7198   12.9914   33.1811 N.1       1 UNK        -0.4401 
     14 N4         21.4264    6.8283   31.0989 N.am      1 UNK        -0.3401 
     15 C9         20.8492    5.6257   31.0244 C.2       1 UNK         0.4614 
     16 O2         19.7218    5.3642   31.4396 O.2       1 UNK        -0.5018 
     17 C10        21.6453    4.5492   30.2959 C.3       1 UNK        -0.0879 
     18 C11        23.0487    4.3416   30.8592 C.ar      1 UNK        -0.0678 
     19 C12        24.1093    5.1752   30.4706 C.ar      1 UNK         0.1394 
     20 O3         23.8251    6.2111   29.5994 O.3       1 UNK        -0.3728 
     21 C13        24.7824    7.2540   29.4258 C.3       1 UNK         0.1411 
     22 C14        25.3879    4.9247   30.9874 C.ar      1 UNK        -0.1675 
     23 C15        25.5914    3.9088   31.9220 C.ar      1 UNK        -0.1608 
     24 C16        24.5221    3.1087   32.3472 C.ar      1 UNK         0.1242 
     25 C17        23.2656    3.3183   31.7864 C.ar      1 UNK        -0.1059 
     26 O4         24.6165    2.1143   33.2977 O.3       1 UNK        -0.3662 
     27 C18        25.8225    1.9829   34.0425 C.3       1 UNK         0.1394 
     28 H1         25.7164   13.0077   29.2298 H         1 UNK         0.4303 
     29 H2         24.4073   12.7826   31.1978 H         1 UNK         0.0605 
     30 H3         23.4068   13.1291   29.7670 H         1 UNK         0.0605 
     31 H4         22.9931   10.7020   29.4686 H         1 UNK         0.0615 
     32 H5         23.9936   10.3555   30.8993 H         1 UNK         0.0615 
     33 H6         19.2674    7.3067   32.7646 H         1 UNK         0.1692 
     34 H7         17.9995   10.4112   33.9502 H         1 UNK         0.3668 
     35 H8         17.9030    8.6579   33.9746 H         1 UNK         0.3668 
     36 H9         22.3330    6.9305   30.6684 H         1 UNK         0.2999 
     37 H10        21.0994    3.6097   30.2956 H         1 UNK         0.0961 
     38 H11        21.7123    4.8699   29.2610 H         1 UNK         0.0961 
     39 H12        24.3494    8.0402   28.8073 H         1 UNK         0.0413 
     40 H13        25.0654    7.7073   30.3780 H         1 UNK         0.0413 
     41 H14        25.6789    6.8955   28.9178 H         1 UNK         0.0413 
     42 H15        26.2372    5.5163   30.6817 H         1 UNK         0.1363 
     43 H16        26.5801    3.7280   32.3186 H         1 UNK         0.1348 
     44 H17        22.4430    2.6802   32.0685 H         1 UNK         0.1482 
     45 H18        25.6996    1.2001   34.7908 H         1 UNK         0.0399 
     46 H19        26.6593    1.6972   33.4036 H         1 UNK         0.0399 
     47 H20        26.0724    2.9044   34.5706 H         1 UNK         0.0399 
@<TRIPOS>BOND
     1    1    2 1    
     2    1   28 1    
     3    2    3 1    
     4    2   29 1    
     5    2   30 1    
     6    3    4 1    
     7    3   31 1    
     8    3   32 1    
     9    4    5 1    
    10    5   11 ar   
    11    5    6 ar   
    12    6    7 ar   
    13    7    8 ar   
    14    7   14 1    
    15    8    9 ar   
    16    8   33 1    
    17    9   10 1    
    18    9   11 ar   
    19   10   34 1    
    20   10   35 1    
    21   11   12 1    
    22   12   13 3    
    23   14   15 am   BACKBONE|DICT|INTERRES
    24   14   36 1    
    25   15   16 2    
    26   15   17 1    
    27   17   18 1    
    28   17   37 1    
    29   17   38 1    
    30   18   25 ar   
    31   18   19 ar   
    32   19   20 1    
    33   19   22 ar   
    34   20   21 1    
    35   21   39 1    
    36   21   40 1    
    37   21   41 1    
    38   22   23 ar   
    39   22   42 1    
    40   23   24 ar   
    41   23   43 1    
    42   24   25 ar   
    43   24   26 1    
    44   25   44 1    
    45   26   27 1    
    46   27   45 1    
    47   27   46 1    
    48   27   47 1    
@<TRIPOS>SUBSTRUCTURE
     1 UNK         1 GROUP             0       ****    0 ROOT    
@<TRIPOS>MOLECULE
18630-1
41   42    1
SMALL
USER_CHARGES


@<TRIPOS>ATOM
      1 C1         24.0733   12.4028   30.2323 C.3       1 UNK        -0.2248 
      2 C17        23.3271   11.0818   30.4341 C.3       1 UNK         0.2067 
      3 O1         22.2086   11.3387   31.2785 O.3       1 UNK        -0.3440 
      4 C2         21.4076   10.2889   31.6938 C.ar      1 UNK         0.5442 
      5 N1         21.7457    9.0394   31.2730 N.ar      1 UNK        -0.8107 
      6 C3         20.9690    8.0101   31.6444 C.ar      1 UNK         0.4342 
      7 C4         19.8628    8.1544   32.4699 C.ar      1 UNK        -0.2686 
      8 C5         19.5194    9.4254   32.8937 C.ar      1 UNK         0.3418 
      9 N2         18.3843    9.5057   33.6914 N.pl3     1 UNK        -0.8306 
     10 C6         20.2911   10.5310   32.5018 C.ar      1 UNK        -0.1071 
     11 C7         19.9686   11.9007   32.8839 C.1       1 UNK         0.2828 
     12 N3         19.7198   12.9914   33.1811 N.1       1 UNK        -0.4379 
     13 N4         21.4264    6.8283   31.0989 N.am      1 UNK        -0.3427 
     14 C8         20.8492    5.6257   31.0244 C.2       1 UNK         0.4587 
     15 O2         19.7218    5.3642   31.4396 O.2       1 UNK        -0.5045 
     16 C9         21.6453    4.5492   30.2959 C.3       1 UNK        -0.0986 
     17 C10        23.0487    4.3416   30.8592 C.ar      1 UNK        -0.0839 
     18 C11        24.1093    5.1752   30.4706 C.ar      1 UNK        -0.1085 
     19 C12        25.3879    4.9247   30.9874 C.ar      1 UNK        -0.1269 
     20 C13        25.5914    3.9088   31.9220 C.ar      1 UNK        -0.0733 
     21 C14        26.9628    3.6763   32.4835 C.3       1 UNK        -0.1286 
     22 C15        24.5221    3.1087   32.3472 C.ar      1 UNK        -0.1269 
     23 C16        23.2656    3.3183   31.7864 C.ar      1 UNK        -0.1085 
     24 H1         24.9321   12.2709   29.5744 H         1 UNK         0.0762 
     25 H2         23.4201   13.1517   29.7829 H         1 UNK         0.0762 
     26 H3         24.4313   12.7993   31.1825 H         1 UNK         0.0762 
     27 H4         22.9932   10.6831   29.4750 H         1 UNK         0.0471 
     28 H5         23.9954   10.3504   30.8918 H         1 UNK         0.0471 
     29 H6         19.2713    7.3010   32.7656 H         1 UNK         0.1699 
     30 H7         17.9030    8.6579   33.9746 H         1 UNK         0.3701 
     31 H8         17.9995   10.4112   33.9502 H         1 UNK         0.3701 
     32 H9         22.3436    6.8922   30.6909 H         1 UNK         0.2999 
     33 H10        21.0921    3.6097   30.3365 H         1 UNK         0.0936 
     34 H11        21.7120    4.8132   29.2401 H         1 UNK         0.0936 
     35 H12        23.9684    5.9664   29.7483 H         1 UNK         0.1303 
     36 H13        26.2222    5.5360   30.6744 H         1 UNK         0.1328 
     37 H14        26.9298    2.8490   33.1924 H         1 UNK         0.0705 
     38 H15        27.6507    3.4336   31.6736 H         1 UNK         0.0705 
     39 H16        27.3046    4.5776   32.9926 H         1 UNK         0.0705 
     40 H17        24.6764    2.3243   33.0742 H         1 UNK         0.1328 
     41 H18        22.4440    2.6876   32.0966 H         1 UNK         0.1303 
@<TRIPOS>BOND
     1    1    2 1    
     2    1   24 1    
     3    1   25 1    
     4    1   26 1    
     5    2    3 1    
     6    2   27 1    
     7    2   28 1    
     8    3    4 1    
     9    4   10 ar   
    10    4    5 ar   
    11    5    6 ar   
    12    6    7 ar   
    13    6   13 1    
    14    7    8 ar   
    15    7   29 1    
    16    8    9 1    
    17    8   10 ar   
    18    9   30 1    
    19    9   31 1    
    20   10   11 1    
    21   11   12 3    
    22   13   14 am   BACKBONE|DICT|INTERRES
    23   13   32 1    
    24   14   15 2    
    25   14   16 1    
    26   16   17 1    
    27   16   33 1    
    28   16   34 1    
    29   17   23 ar   
    30   17   18 ar   
    31   18   19 ar   
    32   18   35 1    
    33   19   20 ar   
    34   19   36 1    
    35   20   21 1    
    36   20   22 ar   
    37   21   37 1    
    38   21   38 1    
    39   21   39 1    
    40   22   23 ar   
    41   22   40 1    
    42   23   41 1    
@<TRIPOS>SUBSTRUCTURE
     1 UNK         1 GROUP             0       ****    0 ROOT    
@<TRIPOS>MOLECULE
18639-1
48   49    1
SMALL
USER_CHARGES


@<TRIPOS>ATOM
      1 C1         24.0733   12.4028   30.2323 C.3       1 UNK        -0.2249 
      2 C18        23.3271   11.0818   30.4341 C.3       1 UNK         0.2065 
      3 O1         22.2086   11.3387   31.2785 O.3       1 UNK        -0.3432 
      4 C2         21.4076   10.2889   31.6938 C.ar      1 UNK         0.5432 
      5 N1         21.7457    9.0394   31.2730 N.ar      1 UNK        -0.8053 
      6 C3         20.9690    8.0101   31.6444 C.ar      1 UNK         0.4309 
      7 C4         19.8628    8.1544   32.4699 C.ar      1 UNK        -0.2695 
      8 C5         19.5194    9.4254   32.8937 C.ar      1 UNK         0.3423 
      9 N2         18.3843    9.5057   33.6914 N.pl3     1 UNK        -0.8301 
     10 C6         20.2911   10.5310   32.5018 C.ar      1 UNK        -0.1051 
     11 C7         19.9686   11.9007   32.8839 C.1       1 UNK         0.2815 
     12 N3         19.7198   12.9914   33.1811 N.1       1 UNK        -0.4350 
     13 N4         21.4264    6.8283   31.0989 N.am      1 UNK        -0.3342 
     14 C8         20.8492    5.6257   31.0244 C.2       1 UNK         0.4651 
     15 O2         19.7218    5.3642   31.4396 O.2       1 UNK        -0.5075 
     16 C9         21.6453    4.5492   30.2959 C.3       1 UNK        -0.0978 
     17 C10        23.0487    4.3416   30.8592 C.ar      1 UNK        -0.0273 
     18 C11        24.1093    5.1752   30.4706 C.ar      1 UNK         0.1379 
     19 O3         23.8251    6.2111   29.5994 O.3       1 UNK        -0.3660 
     20 C12        24.7824    7.2540   29.4258 C.3       1 UNK         0.1351 
     21 C13        25.3879    4.9247   30.9874 C.ar      1 UNK        -0.1235 
     22 C14        25.5914    3.9088   31.9220 C.ar      1 UNK        -0.1194 
     23 N5         26.9264    3.6828   32.4684 N.pl3     1 UNK         0.6471 
     24 O4         27.0552    3.8033   33.6806 O.co2     1 UNK        -0.3761 
     25 O5         27.8083    3.3913   31.6697 O.co2     1 UNK        -0.3761 
     26 C15        24.5221    3.1087   32.3472 C.ar      1 UNK         0.1859 
     27 C16        23.2656    3.3183   31.7864 C.ar      1 UNK        -0.1617 
     28 O6         24.6165    2.1143   33.2977 O.3       1 UNK        -0.3480 
     29 C17        25.8225    1.9829   34.0425 C.3       1 UNK         0.1374 
     30 H1         24.9321   12.2709   29.5744 H         1 UNK         0.0765 
     31 H2         23.4201   13.1517   29.7829 H         1 UNK         0.0765 
     32 H3         24.4313   12.7993   31.1825 H         1 UNK         0.0765 
     33 H4         22.9931   10.7020   29.4686 H         1 UNK         0.0471 
     34 H5         23.9936   10.3555   30.8993 H         1 UNK         0.0471 
     35 H6         19.2641    7.3082   32.7619 H         1 UNK         0.1676 
     36 H7         17.9995   10.4112   33.9502 H         1 UNK         0.3704 
     37 H8         17.9030    8.6579   33.9746 H         1 UNK         0.3704 
     38 H9         22.3253    6.9397   30.6579 H         1 UNK         0.2997 
     39 H10        21.1010    3.6087   30.3001 H         1 UNK         0.1012 
     40 H11        21.7083    4.8657   29.2593 H         1 UNK         0.1012 
     41 H12        24.3494    8.0402   28.8073 H         1 UNK         0.0480 
     42 H13        25.0654    7.7073   30.3780 H         1 UNK         0.0480 
     43 H14        25.6789    6.8955   28.9178 H         1 UNK         0.0480 
     44 H15        26.2165    5.5393   30.6717 H         1 UNK         0.1634 
     45 H16        22.4351    2.6894   32.0648 H         1 UNK         0.1525 
     46 H17        25.6996    1.2001   34.7908 H         1 UNK         0.0480 
     47 H18        26.6593    1.6972   33.4036 H         1 UNK         0.0480 
     48 H19        26.0724    2.9044   34.5706 H         1 UNK         0.0480 
@<TRIPOS>BOND
     1    1    2 1    
     2    1   30 1    
     3    1   31 1    
     4    1   32 1    
     5    2    3 1    
     6    2   33 1    
     7    2   34 1    
     8    3    4 1    
     9    4   10 ar   
    10    4    5 ar   
    11    5    6 ar   
    12    6    7 ar   
    13    6   13 1    
    14    7    8 ar   
    15    7   35 1    
    16    8    9 1    
    17    8   10 ar   
    18    9   36 1    
    19    9   37 1    
    20   10   11 1    
    21   11   12 3    
    22   13   14 am   BACKBONE|DICT|INTERRES
    23   13   38 1    
    24   14   15 2    
    25   14   16 1    
    26   16   17 1    
    27   16   39 1    
    28   16   40 1    
    29   17   27 ar   
    30   17   18 ar   
    31   18   19 1    
    32   18   21 ar   
    33   19   20 1    
    34   20   41 1    
    35   20   42 1    
    36   20   43 1    
    37   21   22 ar   
    38   21   44 1    
    39   22   23 1    
    40   22   26 ar   
    41   23   24 1    
    42   23   25 2    
    43   26   27 ar   
    44   26   28 1    
    45   27   45 1    
    46   28   29 1    
    47   29   46 1    
    48   29   47 1    
    49   29   48 1    
@<TRIPOS>SUBSTRUCTURE
     1 UNK         1 GROUP             0       ****    0 ROOT    
@<TRIPOS>MOLECULE
18631-1
42   43    1
SMALL
USER_CHARGES


@<TRIPOS>ATOM
      1 C1         24.0733   12.4028   30.2323 C.3       1 UNK        -0.2248 
      2 C17        23.3271   11.0818   30.4341 C.3       1 UNK         0.2068 
      3 O1         22.2086   11.3387   31.2785 O.3       1 UNK        -0.3447 
      4 C2         21.4076   10.2889   31.6938 C.ar      1 UNK         0.5430 
      5 N1         21.7457    9.0394   31.2730 N.ar      1 UNK        -0.8069 
      6 C3         20.9690    8.0101   31.6444 C.ar      1 UNK         0.4361 
      7 C4         19.8628    8.1544   32.4699 C.ar      1 UNK        -0.2702 
      8 C5         19.5194    9.4254   32.8937 C.ar      1 UNK         0.3396 
      9 N2         18.3843    9.5057   33.6914 N.pl3     1 UNK        -0.8233 
     10 C6         20.2911   10.5310   32.5018 C.ar      1 UNK        -0.1095 
     11 C7         19.9686   11.9007   32.8839 C.1       1 UNK         0.2838 
     12 N3         19.7198   12.9914   33.1811 N.1       1 UNK        -0.4402 
     13 N4         21.4264    6.8283   31.0989 N.am      1 UNK        -0.3405 
     14 C8         20.8492    5.6257   31.0244 C.2       1 UNK         0.4609 
     15 O2         19.7218    5.3642   31.4396 O.2       1 UNK        -0.5034 
     16 C9         21.6453    4.5492   30.2959 C.3       1 UNK        -0.0884 
     17 C10        23.0487    4.3416   30.8592 C.ar      1 UNK        -0.0992 
     18 C11        24.1093    5.1752   30.4706 C.ar      1 UNK         0.1712 
     19 O3         23.8251    6.2111   29.5994 O.3       1 UNK        -0.3733 
     20 C12        24.7824    7.2540   29.4258 C.3       1 UNK         0.1409 
     21 C13        25.3879    4.9247   30.9874 C.ar      1 UNK        -0.2005 
     22 C14        25.5914    3.9088   31.9220 C.ar      1 UNK        -0.0888 
     23 C15        24.5221    3.1087   32.3472 C.ar      1 UNK        -0.1618 
     24 C16        23.2656    3.3183   31.7864 C.ar      1 UNK        -0.0771 
     25 H1         24.9321   12.2709   29.5744 H         1 UNK         0.0757 
     26 H2         23.4201   13.1517   29.7829 H         1 UNK         0.0757 
     27 H3         24.4313   12.7993   31.1825 H         1 UNK         0.0757 
     28 H4         22.9947   10.6820   29.4735 H         1 UNK         0.0473 
     29 H5         23.9952   10.3471   30.8896 H         1 UNK         0.0473 
     30 H6         19.2676    7.3074   32.7664 H         1 UNK         0.1679 
     31 H7         17.9030    8.6579   33.9746 H         1 UNK         0.3665 
     32 H8         17.9995   10.4112   33.9502 H         1 UNK         0.3665 
     33 H9         22.3310    6.9312   30.6649 H         1 UNK         0.2989 
     34 H10        21.0955    3.6112   30.2940 H         1 UNK         0.0937 
     35 H11        21.7116    4.8741   29.2628 H         1 UNK         0.0937 
     36 H12        25.0654    7.7073   30.3780 H         1 UNK         0.0420 
     37 H13        25.6789    6.8955   28.9178 H         1 UNK         0.0420 
     38 H14        24.3494    8.0402   28.8073 H         1 UNK         0.0420 
     39 H15        26.2368    5.5145   30.6784 H         1 UNK         0.1339 
     40 H16        26.5795    3.7320   32.3246 H         1 UNK         0.1328 
     41 H17        24.6847    2.3339   33.0832 H         1 UNK         0.1335 
     42 H18        22.4588    2.6569   32.0727 H         1 UNK         0.1349 
@<TRIPOS>BOND
     1    1    2 1    
     2    1   25 1    
     3    1   26 1    
     4    1   27 1    
     5    2    3 1    
     6    2   28 1    
     7    2   29 1    
     8    3    4 1    
     9    4   10 ar   
    10    4    5 ar   
    11    5    6 ar   
    12    6    7 ar   
    13    6   13 1    
    14    7    8 ar   
    15    7   30 1    
    16    8    9 1    
    17    8   10 ar   
    18    9   31 1    
    19    9   32 1    
    20   10   11 1    
    21   11   12 3    
    22   13   14 am   BACKBONE|DICT|INTERRES
    23   13   33 1    
    24   14   15 2    
    25   14   16 1    
    26   16   17 1    
    27   16   34 1    
    28   16   35 1    
    29   17   24 ar   
    30   17   18 ar   
    31   18   19 1    
    32   18   21 ar   
    33   19   20 1    
    34   20   36 1    
    35   20   37 1    
    36   20   38 1    
    37   21   22 ar   
    38   21   39 1    
    39   22   23 ar   
    40   22   40 1    
    41   23   24 ar   
    42   23   41 1    
    43   24   42 1    
@<TRIPOS>SUBSTRUCTURE
     1 UNK         1 GROUP             0       ****    0 ROOT    
@<TRIPOS>MOLECULE
18632-1
42   43    1
SMALL
USER_CHARGES


@<TRIPOS>ATOM
      1 C1         24.0733   12.4028   30.2323 C.3       1 UNK        -0.2248 
      2 C17        23.3271   11.0818   30.4341 C.3       1 UNK         0.2067 
      3 O1         22.2086   11.3387   31.2785 O.3       1 UNK        -0.3439 
      4 C2         21.4076   10.2889   31.6938 C.ar      1 UNK         0.5445 
      5 N1         21.7457    9.0394   31.2730 N.ar      1 UNK        -0.8108 
      6 C3         20.9690    8.0101   31.6444 C.ar      1 UNK         0.4348 
      7 C4         19.8628    8.1544   32.4699 C.ar      1 UNK        -0.2686 
      8 C5         19.5194    9.4254   32.8937 C.ar      1 UNK         0.3400 
      9 N2         18.3843    9.5057   33.6914 N.pl3     1 UNK        -0.8221 
     10 C6         20.2911   10.5310   32.5018 C.ar      1 UNK        -0.1078 
     11 C7         19.9686   11.9007   32.8839 C.1       1 UNK         0.2830 
     12 N3         19.7198   12.9914   33.1811 N.1       1 UNK        -0.4381 
     13 N4         21.4264    6.8283   31.0989 N.am      1 UNK        -0.3436 
     14 C8         20.8492    5.6257   31.0244 C.2       1 UNK         0.4573 
     15 O2         19.7218    5.3642   31.4396 O.2       1 UNK        -0.4964 
     16 C9         21.6453    4.5492   30.2959 C.3       1 UNK        -0.0994 
     17 C10        23.0487    4.3416   30.8592 C.ar      1 UNK        -0.0455 
     18 C11        23.2656    3.3183   31.7864 C.ar      1 UNK        -0.1323 
     19 C12        24.5221    3.1087   32.3472 C.ar      1 UNK         0.1578 
     20 O3         24.6165    2.1143   33.2977 O.3       1 UNK        -0.3647 
     21 C13        25.8225    1.9829   34.0425 C.3       1 UNK         0.1384 
     22 C14        25.5914    3.9088   31.9220 C.ar      1 UNK        -0.1952 
     23 C15        25.3879    4.9247   30.9874 C.ar      1 UNK        -0.0944 
     24 C16        24.1093    5.1752   30.4706 C.ar      1 UNK        -0.1550 
     25 H1         24.9321   12.2709   29.5744 H         1 UNK         0.0762 
     26 H2         23.4201   13.1517   29.7829 H         1 UNK         0.0762 
     27 H3         24.4313   12.7993   31.1825 H         1 UNK         0.0762 
     28 H4         22.9931   10.7020   29.4686 H         1 UNK         0.0471 
     29 H5         23.9936   10.3555   30.8993 H         1 UNK         0.0471 
     30 H6         19.2795    7.3021   32.7752 H         1 UNK         0.1693 
     31 H7         17.9995   10.4112   33.9502 H         1 UNK         0.3669 
     32 H8         17.9030    8.6579   33.9746 H         1 UNK         0.3669 
     33 H9         22.3245    6.9422   30.6626 H         1 UNK         0.2988 
     34 H10        21.0681    3.6260   30.3297 H         1 UNK         0.0956 
     35 H11        21.7174    4.8305   29.2486 H         1 UNK         0.0956 
     36 H12        22.4617    2.6523   32.0647 H         1 UNK         0.1469 
     37 H13        25.6996    1.2001   34.7908 H         1 UNK         0.0412 
     38 H14        26.6593    1.6972   33.4036 H         1 UNK         0.0412 
     39 H15        26.0724    2.9044   34.5706 H         1 UNK         0.0412 
     40 H16        26.5885    3.7499   32.3027 H         1 UNK         0.1329 
     41 H17        26.2224    5.5229   30.6479 H         1 UNK         0.1334 
     42 H18        23.9417    5.9919   29.7820 H         1 UNK         0.1273 
@<TRIPOS>BOND
     1    1    2 1    
     2    1   25 1    
     3    1   26 1    
     4    1   27 1    
     5    2    3 1    
     6    2   28 1    
     7    2   29 1    
     8    3    4 1    
     9    4   10 ar   
    10    4    5 ar   
    11    5    6 ar   
    12    6    7 ar   
    13    6   13 1    
    14    7    8 ar   
    15    7   30 1    
    16    8    9 1    
    17    8   10 ar   
    18    9   31 1    
    19    9   32 1    
    20   10   11 1    
    21   11   12 3    
    22   13   14 am   BACKBONE|DICT|INTERRES
    23   13   33 1    
    24   14   15 2    
    25   14   16 1    
    26   16   17 1    
    27   16   34 1    
    28   16   35 1    
    29   17   24 ar   
    30   17   18 ar   
    31   18   19 ar   
    32   18   36 1    
    33   19   20 1    
    34   19   22 ar   
    35   20   21 1    
    36   21   37 1    
    37   21   38 1    
    38   21   39 1    
    39   22   23 ar   
    40   22   40 1    
    41   23   24 ar   
    42   23   41 1    
    43   24   42 1    
@<TRIPOS>SUBSTRUCTURE
     1 UNK         1 GROUP             0       ****    0 ROOT    
@<TRIPOS>MOLECULE
18636-1
38   39    1
SMALL
USER_CHARGES


@<TRIPOS>ATOM
      1 C1         24.0733   12.4028   30.2323 C.3       1 UNK        -0.2248 
      2 C16        23.3271   11.0818   30.4341 C.3       1 UNK         0.2063 
      3 O1         22.2086   11.3387   31.2785 O.3       1 UNK        -0.3435 
      4 C2         21.4076   10.2889   31.6938 C.ar      1 UNK         0.5433 
      5 N1         21.7457    9.0394   31.2730 N.ar      1 UNK        -0.8055 
      6 C3         20.9690    8.0101   31.6444 C.ar      1 UNK         0.4322 
      7 C4         19.8628    8.1544   32.4699 C.ar      1 UNK        -0.2689 
      8 C5         19.5194    9.4254   32.8937 C.ar      1 UNK         0.3421 
      9 N2         18.3843    9.5057   33.6914 N.pl3     1 UNK        -0.8303 
     10 C6         20.2911   10.5310   32.5018 C.ar      1 UNK        -0.1057 
     11 C7         19.9686   11.9007   32.8839 C.1       1 UNK         0.2822 
     12 N3         19.7198   12.9914   33.1811 N.1       1 UNK        -0.4364 
     13 N4         21.4264    6.8283   31.0989 N.am      1 UNK        -0.3375 
     14 C8         20.8492    5.6257   31.0244 C.2       1 UNK         0.4622 
     15 O2         19.7218    5.3642   31.4396 O.2       1 UNK        -0.5022 
     16 C9         21.6453    4.5492   30.2959 C.3       1 UNK        -0.1071 
     17 C10        23.0487    4.3416   30.8592 C.ar      1 UNK        -0.0394 
     18 C11        24.1093    5.1752   30.4706 C.ar      1 UNK         0.0759 
     19 BR1        23.8590    6.6230   29.2548 Br        1 UNK        -0.1620 
     20 C12        25.3879    4.9247   30.9874 C.ar      1 UNK        -0.0991 
     21 C13        25.5914    3.9088   31.9220 C.ar      1 UNK        -0.0944 
     22 C14        24.5221    3.1087   32.3472 C.ar      1 UNK         0.0604 
     23 BR2        24.8090    1.7627   33.6596 Br        1 UNK        -0.1581 
     24 C15        23.2656    3.3183   31.7864 C.ar      1 UNK        -0.0818 
     25 H1         24.9321   12.2709   29.5744 H         1 UNK         0.0764 
     26 H2         23.4201   13.1517   29.7829 H         1 UNK         0.0764 
     27 H3         24.4313   12.7993   31.1825 H         1 UNK         0.0764 
     28 H4         22.9948   10.6829   29.4731 H         1 UNK         0.0475 
     29 H5         23.9951   10.3462   30.8883 H         1 UNK         0.0475 
     30 H6         19.2664    7.3082   32.7662 H         1 UNK         0.1684 
     31 H7         17.9030    8.6579   33.9746 H         1 UNK         0.3703 
     32 H8         17.9995   10.4112   33.9502 H         1 UNK         0.3703 
     33 H9         22.3187    6.9706   30.6587 H         1 UNK         0.2995 
     34 H10        21.0972    3.6095   30.3240 H         1 UNK         0.1023 
     35 H11        21.6892    4.8369   29.2495 H         1 UNK         0.1023 
     36 H12        26.2232    5.5268   30.6581 H         1 UNK         0.1528 
     37 H13        26.5774    3.7240   32.3239 H         1 UNK         0.1518 
     38 H14        22.4630    2.6540   32.0735 H         1 UNK         0.1503 
@<TRIPOS>BOND
     1    1    2 1    
     2    1   25 1    
     3    1   26 1    
     4    1   27 1    
     5    2    3 1    
     6    2   28 1    
     7    2   29 1    
     8    3    4 1    
     9    4   10 ar   
    10    4    5 ar   
    11    5    6 ar   
    12    6    7 ar   
    13    6   13 1    
    14    7    8 ar   
    15    7   30 1    
    16    8    9 1    
    17    8   10 ar   
    18    9   31 1    
    19    9   32 1    
    20   10   11 1    
    21   11   12 3    
    22   13   14 am   BACKBONE|DICT|INTERRES
    23   13   33 1    
    24   14   15 2    
    25   14   16 1    
    26   16   17 1    
    27   16   34 1    
    28   16   35 1    
    29   17   24 ar   
    30   17   18 ar   
    31   18   19 1    
    32   18   20 ar   
    33   20   21 ar   
    34   20   36 1    
    35   21   22 ar   
    36   21   37 1    
    37   22   23 1    
    38   22   24 ar   
    39   24   38 1    
@<TRIPOS>SUBSTRUCTURE
     1 UNK         1 GROUP             0       ****    0 ROOT    
@<TRIPOS>MOLECULE
18626-1
38   39    1
SMALL
USER_CHARGES


@<TRIPOS>ATOM
      1 C1         24.0733   12.4028   30.2323 C.3       1 UNK        -0.2248 
      2 C16        23.3271   11.0818   30.4341 C.3       1 UNK         0.2066 
      3 O1         22.2086   11.3387   31.2785 O.3       1 UNK        -0.3435 
      4 C2         21.4076   10.2889   31.6938 C.ar      1 UNK         0.5443 
      5 N1         21.7457    9.0394   31.2730 N.ar      1 UNK        -0.8099 
      6 C3         20.9690    8.0101   31.6444 C.ar      1 UNK         0.4325 
      7 C4         19.8628    8.1544   32.4699 C.ar      1 UNK        -0.2685 
      8 C5         19.5194    9.4254   32.8937 C.ar      1 UNK         0.3421 
      9 N2         18.3843    9.5057   33.6914 N.pl3     1 UNK        -0.8301 
     10 C6         20.2911   10.5310   32.5018 C.ar      1 UNK        -0.1059 
     11 C7         19.9686   11.9007   32.8839 C.1       1 UNK         0.2822 
     12 N3         19.7198   12.9914   33.1811 N.1       1 UNK        -0.4363 
     13 N4         21.4264    6.8283   31.0989 N.am      1 UNK        -0.3410 
     14 C8         20.8492    5.6257   31.0244 C.2       1 UNK         0.4588 
     15 O2         19.7218    5.3642   31.4396 O.2       1 UNK        -0.5027 
     16 C9         21.6453    4.5492   30.2959 C.3       1 UNK        -0.1000 
     17 C10        23.0487    4.3416   30.8592 C.ar      1 UNK        -0.0682 
     18 C11        23.2656    3.3183   31.7864 C.ar      1 UNK        -0.0977 
     19 C12        24.5221    3.1087   32.3472 C.ar      1 UNK         0.1605 
     20 CL1        24.7335    1.8967   33.5552 Cl        1 UNK        -0.2368 
     21 C13        25.5914    3.9088   31.9220 C.ar      1 UNK        -0.1149 
     22 C14        25.3879    4.9247   30.9874 C.ar      1 UNK        -0.1184 
     23 C15        24.1093    5.1752   30.4706 C.ar      1 UNK        -0.1187 
     24 H1         24.9321   12.2709   29.5744 H         1 UNK         0.0764 
     25 H2         23.4201   13.1517   29.7829 H         1 UNK         0.0764 
     26 H3         24.4313   12.7993   31.1825 H         1 UNK         0.0764 
     27 H4         22.9946   10.6831   29.4731 H         1 UNK         0.0471 
     28 H5         23.9951   10.3465   30.8887 H         1 UNK         0.0471 
     29 H6         19.2659    7.3077   32.7643 H         1 UNK         0.1694 
     30 H7         17.9030    8.6579   33.9746 H         1 UNK         0.3704 
     31 H8         17.9995   10.4112   33.9502 H         1 UNK         0.3704 
     32 H9         22.3158    6.9625   30.6553 H         1 UNK         0.2997 
     33 H10        21.0987    3.6078   30.3021 H         1 UNK         0.0967 
     34 H11        21.6985    4.8828   29.2665 H         1 UNK         0.0967 
     35 H12        22.4578    2.6659   32.0810 H         1 UNK         0.1473 
     36 H13        26.5779    3.7400   32.3285 H         1 UNK         0.1452 
     37 H14        26.2203    5.5333   30.6595 H         1 UNK         0.1392 
     38 H15        23.9434    5.9932   29.7825 H         1 UNK         0.1321 
@<TRIPOS>BOND
     1    1    2 1    
     2    1   24 1    
     3    1   25 1    
     4    1   26 1    
     5    2    3 1    
     6    2   27 1    
     7    2   28 1    
     8    3    4 1    
     9    4   10 ar   
    10    4    5 ar   
    11    5    6 ar   
    12    6    7 ar   
    13    6   13 1    
    14    7    8 ar   
    15    7   29 1    
    16    8    9 1    
    17    8   10 ar   
    18    9   30 1    
    19    9   31 1    
    20   10   11 1    
    21   11   12 3    
    22   13   14 am   BACKBONE|DICT|INTERRES
    23   13   32 1    
    24   14   15 2    
    25   14   16 1    
    26   16   17 1    
    27   16   33 1    
    28   16   34 1    
    29   17   23 ar   
    30   17   18 ar   
    31   18   19 ar   
    32   18   35 1    
    33   19   20 1    
    34   19   21 ar   
    35   21   22 ar   
    36   21   36 1    
    37   22   23 ar   
    38   22   37 1    
    39   23   38 1    
@<TRIPOS>SUBSTRUCTURE
     1 UNK         1 GROUP             0       ****    0 ROOT    
