@<TRIPOS>MOLECULE
17124-1
46   47   0
SMALL
NO_CHARGES


@<TRIPOS>ATOM
      1 C1         24.0733   12.4028   30.2323 C.3       1 UNK        -0.4230
      2 C18        23.3271   11.0818   30.4341 C.3       1 UNK         0.3374
      3 O1         22.2086   11.3387   31.2785 O.3       1 UNK        -0.4461
      4 C2         21.4076   10.2889   31.6938 C.ar      1 UNK         0.7587
      5 N1         21.7457    9.0394   31.2730 N.ar      1 UNK        -0.7310
      6 C3         20.9690    8.0101   31.6444 C.ar      1 UNK         0.7253
      7 C4         19.8628    8.1544   32.4699 C.ar      1 UNK        -0.7389
      8 C5         19.5194    9.4254   32.8937 C.ar      1 UNK         0.7232
      9 N2         18.3843    9.5057   33.6914 N.pl3     1 UNK        -0.9353
     10 C6         20.2911   10.5310   32.5018 C.ar      1 UNK        -0.6867
     11 C7         19.9686   11.9007   32.8839 C.1       1 UNK         0.5609
     12 N3         19.7198   12.9914   33.1811 N.1       1 UNK        -0.5989
     13 N4         21.4264    6.8283   31.0989 N.am      1 UNK        -0.5240
     14 C8         20.8492    5.6257   31.0244 C.2       1 UNK         0.6549
     15 O2         19.7218    5.3642   31.4396 O.2       1 UNK        -0.6031
     16 C9         21.6453    4.5492   30.2959 C.3       1 UNK        -0.2814
     17 C10        23.0487    4.3416   30.8592 C.ar      1 UNK         0.1117
     18 C11        24.1093    5.1752   30.4706 C.ar      1 UNK         0.0779
     19 O3         23.8251    6.2111   29.5994 O.3       1 UNK        -0.1787
     20 C12        24.7824    7.2540   29.4258 C.3       1 UNK        -0.2623
     21 C13        25.3879    4.9247   30.9874 C.ar      1 UNK        -0.0150
     22 C14        25.5914    3.9088   31.9220 C.ar      1 UNK        -0.2708
     23 BR1        27.3537    3.6230   32.5903 Br        1 UNK        -0.0350
     24 C15        24.5221    3.1087   32.3472 C.ar      1 UNK         0.5121
     25 C16        23.2656    3.3183   31.7864 C.ar      1 UNK        -0.3986
     26 O4         24.6165    2.1143   33.2977 O.3       1 UNK        -0.4911
     27 C17        25.8225    1.9829   34.0425 C.3       1 UNK         0.0236
     28 H1         24.9321   12.2709   29.5744 H         1 UNK         0.1114
     29 H2         23.4201   13.1517   29.7829 H         1 UNK         0.1259
     30 H3         24.4313   12.7993   31.1825 H         1 UNK         0.1277
     31 H4         22.9948   10.6822   29.4734 H         1 UNK         0.0359
     32 H5         23.9950   10.3470   30.8895 H         1 UNK         0.0234
     33 H6         19.2672    7.3078   32.7668 H         1 UNK         0.2781
     34 H7         17.9030    8.6579   33.9746 H         1 UNK         0.4556
     35 H8         17.9995   10.4112   33.9502 H         1 UNK         0.4528
     36 H9         22.3289    6.9367   30.6631 H         1 UNK         0.2645
     37 H10        21.0979    3.6104   30.2963 H         1 UNK         0.1195
     38 H11        21.7094    4.8701   29.2610 H         1 UNK         0.1153
     39 H12        24.3494    8.0402   28.8073 H         1 UNK         0.1465
     40 H13        25.0654    7.7073   30.3780 H         1 UNK         0.1658
     41 H14        25.6789    6.8955   28.9178 H         1 UNK         0.1629
     42 H15        26.2385    5.5106   30.6772 H         1 UNK         0.0932
     43 H16        22.4415    2.6787   32.0616 H         1 UNK         0.2198
     44 H17        25.6996    1.2001   34.7908 H         1 UNK         0.1093
     45 H18        26.6593    1.6972   33.4036 H         1 UNK         0.0529
     46 H19        26.0724    2.9044   34.5706 H         1 UNK         0.0741
@<TRIPOS>BOND
     1    1    2 1    
     2    1   28 1    
     3    1   29 1    
     4    1   30 1    
     5    2    3 1    
     6    2   31 1    
     7    2   32 1    
     8    3    4 1    
     9    4   10 ar   
    10    4    5 ar   
    11    5    6 ar   
    12    6    7 ar   
    13    6   13 1    
    14    7    8 ar   
    15    7   33 1    
    16    8    9 1    
    17    8   10 ar   
    18    9   34 1    
    19    9   35 1    
    20   10   11 1    
    21   11   12 3    
    22   13   14 am   
    23   13   36 1    
    24   14   15 2    
    25   14   16 1    
    26   16   17 1    
    27   16   37 1    
    28   16   38 1    
    29   17   25 ar   
    30   17   18 ar   
    31   18   19 1    
    32   18   21 ar   
    33   19   20 1    
    34   20   39 1    
    35   20   40 1    
    36   20   41 1    
    37   21   22 ar   
    38   21   42 1    
    39   22   23 1    
    40   22   24 ar   
    41   24   25 ar   
    42   24   26 1    
    43   25   43 1    
    44   26   27 1    
    45   27   44 1    
    46   27   45 1    
    47   27   46 1    
@<TRIPOS>SUBSTRUCTURE
@<TRIPOS>MOLECULE
18624-1
38   39   0
SMALL
NO_CHARGES


@<TRIPOS>ATOM
      1 C1         24.0733   12.4028   30.2323 C.3       1 UNK        -0.3686
      2 C16        23.3271   11.0818   30.4341 C.3       1 UNK         0.3584
      3 O1         22.2086   11.3387   31.2785 O.3       1 UNK        -0.4788
      4 C2         21.4076   10.2889   31.6938 C.ar      1 UNK         0.8869
      5 N1         21.7457    9.0394   31.2730 N.ar      1 UNK        -0.8191
      6 C3         20.9690    8.0101   31.6444 C.ar      1 UNK         0.7945
      7 C4         19.8628    8.1544   32.4699 C.ar      1 UNK        -0.8103
      8 C5         19.5194    9.4254   32.8937 C.ar      1 UNK         0.8213
      9 N2         18.3843    9.5057   33.6914 N.pl3     1 UNK        -0.9592
     10 C6         20.2911   10.5310   32.5018 C.ar      1 UNK        -0.8084
     11 C7         19.9686   11.9007   32.8839 C.1       1 UNK         0.5860
     12 N3         19.7198   12.9914   33.1811 N.1       1 UNK        -0.5978
     13 N4         21.4264    6.8283   31.0989 N.am      1 UNK        -0.6096
     14 C8         20.8492    5.6257   31.0244 C.2       1 UNK         0.8082
     15 O2         19.7218    5.3642   31.4396 O.2       1 UNK        -0.6280
     16 C9         21.6453    4.5492   30.2959 C.3       1 UNK        -0.6998
     17 C10        23.0487    4.3416   30.8592 C.ar      1 UNK         0.3971
     18 C11        24.1093    5.1752   30.4706 C.ar      1 UNK        -0.2783
     19 C12        25.3879    4.9247   30.9874 C.ar      1 UNK        -0.0878
     20 C13        25.5914    3.9088   31.9220 C.ar      1 UNK        -0.1993
     21 C14        24.5221    3.1087   32.3472 C.ar      1 UNK        -0.0391
     22 C15        23.2656    3.3183   31.7864 C.ar      1 UNK        -0.3153
     23 H1         24.9321   12.2709   29.5744 H         1 UNK         0.0987
     24 H2         23.4201   13.1517   29.7829 H         1 UNK         0.1129
     25 H3         24.4313   12.7993   31.1825 H         1 UNK         0.1133
     26 H4         22.9955   10.6839   29.4725 H         1 UNK         0.0166
     27 H5         23.9940   10.3454   30.8885 H         1 UNK         0.0149
     28 H6         19.2795    7.3026   32.7768 H         1 UNK         0.2915
     29 H7         17.9030    8.6579   33.9746 H         1 UNK         0.4625
     30 H8         17.9995   10.4112   33.9502 H         1 UNK         0.4578
     31 H9         22.3466    6.9260   30.7071 H         1 UNK         0.3242
     32 H10        21.0677    3.6256   30.3284 H         1 UNK         0.2082
     33 H11        21.7094    4.8301   29.2476 H         1 UNK         0.2149
     34 H12        23.9315    5.9967   29.7907 H         1 UNK         0.1567
     35 H13        26.2312    5.5203   30.6653 H         1 UNK         0.1384
     36 H14        26.5803    3.7358   32.3241 H         1 UNK         0.1475
     37 H15        24.6826    2.3489   33.0992 H         1 UNK         0.1227
     38 H16        22.4547    2.6689   32.0859 H         1 UNK         0.1660
@<TRIPOS>BOND
     1    1    2 1    
     2    1   23 1    
     3    1   24 1    
     4    1   25 1    
     5    2    3 1    
     6    2   26 1    
     7    2   27 1    
     8    3    4 1    
     9    4   10 ar   
    10    4    5 ar   
    11    5    6 ar   
    12    6    7 ar   
    13    6   13 1    
    14    7    8 ar   
    15    7   28 1    
    16    8    9 1    
    17    8   10 ar   
    18    9   29 1    
    19    9   30 1    
    20   10   11 1    
    21   11   12 3    
    22   13   14 am   
    23   13   31 1    
    24   14   15 2    
    25   14   16 1    
    26   16   17 1    
    27   16   32 1    
    28   16   33 1    
    29   17   22 ar   
    30   17   18 ar   
    31   18   19 ar   
    32   18   34 1    
    33   19   20 ar   
    34   19   35 1    
    35   20   21 ar   
    36   20   36 1    
    37   21   22 ar   
    38   21   37 1    
    39   22   38 1    
@<TRIPOS>SUBSTRUCTURE
@<TRIPOS>MOLECULE
18625-1
38   39   0
SMALL
NO_CHARGES


@<TRIPOS>ATOM
      1 C1         24.0733   12.4028   30.2323 C.3       1 UNK        -0.3644
      2 C16        23.3271   11.0818   30.4341 C.3       1 UNK         0.3617
      3 O1         22.2086   11.3387   31.2785 O.3       1 UNK        -0.4762
      4 C2         21.4076   10.2889   31.6938 C.ar      1 UNK         0.8580
      5 N1         21.7457    9.0394   31.2730 N.ar      1 UNK        -0.7716
      6 C3         20.9690    8.0101   31.6444 C.ar      1 UNK         0.7208
      7 C4         19.8628    8.1544   32.4699 C.ar      1 UNK        -0.7649
      8 C5         19.5194    9.4254   32.8937 C.ar      1 UNK         0.7990
      9 N2         18.3843    9.5057   33.6914 N.pl3     1 UNK        -0.9591
     10 C6         20.2911   10.5310   32.5018 C.ar      1 UNK        -0.7838
     11 C7         19.9686   11.9007   32.8839 C.1       1 UNK         0.5900
     12 N3         19.7198   12.9914   33.1811 N.1       1 UNK        -0.6074
     13 N4         21.4264    6.8283   31.0989 N.am      1 UNK        -0.5539
     14 C8         20.8492    5.6257   31.0244 C.2       1 UNK         0.7400
     15 O2         19.7218    5.3642   31.4396 O.2       1 UNK        -0.5995
     16 C9         21.6453    4.5492   30.2959 C.3       1 UNK        -0.6108
     17 C10        23.0487    4.3416   30.8592 C.ar      1 UNK         0.4331
     18 C11        24.1093    5.1752   30.4706 C.ar      1 UNK        -0.1888
     19 CL1        23.8728    6.4907   29.3723 Cl        1 UNK        -0.0891
     20 C12        25.3879    4.9247   30.9874 C.ar      1 UNK         0.0289
     21 C13        25.5914    3.9088   31.9220 C.ar      1 UNK        -0.2213
     22 C14        24.5221    3.1087   32.3472 C.ar      1 UNK        -0.0793
     23 C15        23.2656    3.3183   31.7864 C.ar      1 UNK        -0.3064
     24 H1         24.9321   12.2709   29.5744 H         1 UNK         0.0969
     25 H2         23.4201   13.1517   29.7829 H         1 UNK         0.1119
     26 H3         24.4313   12.7993   31.1825 H         1 UNK         0.1105
     27 H4         22.9947   10.6827   29.4732 H         1 UNK         0.0130
     28 H5         23.9954   10.3463   30.8881 H         1 UNK         0.0136
     29 H6         19.2662    7.3080   32.7651 H         1 UNK         0.2792
     30 H7         17.9995   10.4112   33.9502 H         1 UNK         0.4568
     31 H8         17.9030    8.6579   33.9746 H         1 UNK         0.4618
     32 H9         22.3206    6.9640   30.6582 H         1 UNK         0.3198
     33 H10        21.1002    3.6080   30.3197 H         1 UNK         0.2089
     34 H11        21.6929    4.8431   29.2513 H         1 UNK         0.1734
     35 H12        26.2218    5.5285   30.6594 H         1 UNK         0.1136
     36 H13        26.5801    3.7288   32.3216 H         1 UNK         0.1678
     37 H14        24.6832    2.3368   33.0873 H         1 UNK         0.1471
     38 H15        22.4576    2.6581   32.0698 H         1 UNK         0.1707
@<TRIPOS>BOND
     1    1    2 1    
     2    1   24 1    
     3    1   25 1    
     4    1   26 1    
     5    2    3 1    
     6    2   27 1    
     7    2   28 1    
     8    3    4 1    
     9    4   10 ar   
    10    4    5 ar   
    11    5    6 ar   
    12    6    7 ar   
    13    6   13 1    
    14    7    8 ar   
    15    7   29 1    
    16    8    9 1    
    17    8   10 ar   
    18    9   30 1    
    19    9   31 1    
    20   10   11 1    
    21   11   12 3    
    22   13   14 am   
    23   13   32 1    
    24   14   15 2    
    25   14   16 1    
    26   16   17 1    
    27   16   33 1    
    28   16   34 1    
    29   17   23 ar   
    30   17   18 ar   
    31   18   19 1    
    32   18   20 ar   
    33   20   21 ar   
    34   20   35 1    
    35   21   22 ar   
    36   21   36 1    
    37   22   23 ar   
    38   22   37 1    
    39   23   38 1    
@<TRIPOS>SUBSTRUCTURE
@<TRIPOS>MOLECULE
18626-1
38   39   0
SMALL
NO_CHARGES


@<TRIPOS>ATOM
      1 C1         24.0733   12.4028   30.2323 C.3       1 UNK        -0.3589
      2 C16        23.3271   11.0818   30.4341 C.3       1 UNK         0.3482
      3 O1         22.2086   11.3387   31.2785 O.3       1 UNK        -0.4779
      4 C2         21.4076   10.2889   31.6938 C.ar      1 UNK         0.8934
      5 N1         21.7457    9.0394   31.2730 N.ar      1 UNK        -0.8133
      6 C3         20.9690    8.0101   31.6444 C.ar      1 UNK         0.7794
      7 C4         19.8628    8.1544   32.4699 C.ar      1 UNK        -0.8032
      8 C5         19.5194    9.4254   32.8937 C.ar      1 UNK         0.8164
      9 N2         18.3843    9.5057   33.6914 N.pl3     1 UNK        -0.9621
     10 C6         20.2911   10.5310   32.5018 C.ar      1 UNK        -0.8051
     11 C7         19.9686   11.9007   32.8839 C.1       1 UNK         0.5917
     12 N3         19.7198   12.9914   33.1811 N.1       1 UNK        -0.6055
     13 N4         21.4264    6.8283   31.0989 N.am      1 UNK        -0.5953
     14 C8         20.8492    5.6257   31.0244 C.2       1 UNK         0.7843
     15 O2         19.7218    5.3642   31.4396 O.2       1 UNK        -0.6163
     16 C9         21.6453    4.5492   30.2959 C.3       1 UNK        -0.6567
     17 C10        23.0487    4.3416   30.8592 C.ar      1 UNK         0.3319
     18 C11        23.2656    3.3183   31.7864 C.ar      1 UNK        -0.1570
     19 C12        24.5221    3.1087   32.3472 C.ar      1 UNK        -0.0366
     20 CL1        24.7335    1.8967   33.5552 Cl        1 UNK        -0.1125
     21 C13        25.5914    3.9088   31.9220 C.ar      1 UNK        -0.0547
     22 C14        25.3879    4.9247   30.9874 C.ar      1 UNK        -0.1096
     23 C15        24.1093    5.1752   30.4706 C.ar      1 UNK        -0.2899
     24 H1         24.9321   12.2709   29.5744 H         1 UNK         0.0962
     25 H2         23.4201   13.1517   29.7829 H         1 UNK         0.1114
     26 H3         24.4313   12.7993   31.1825 H         1 UNK         0.1123
     27 H4         22.9946   10.6831   29.4731 H         1 UNK         0.0146
     28 H5         23.9951   10.3465   30.8887 H         1 UNK         0.0155
     29 H6         19.2659    7.3077   32.7643 H         1 UNK         0.2906
     30 H7         17.9030    8.6579   33.9746 H         1 UNK         0.4623
     31 H8         17.9995   10.4112   33.9502 H         1 UNK         0.4594
     32 H9         22.3158    6.9625   30.6553 H         1 UNK         0.3304
     33 H10        21.0987    3.6078   30.3021 H         1 UNK         0.2209
     34 H11        21.6985    4.8828   29.2665 H         1 UNK         0.2001
     35 H12        22.4578    2.6659   32.0810 H         1 UNK         0.1368
     36 H13        26.5779    3.7400   32.3285 H         1 UNK         0.1250
     37 H14        26.2203    5.5333   30.6595 H         1 UNK         0.1523
     38 H15        23.9434    5.9932   29.7825 H         1 UNK         0.1816
@<TRIPOS>BOND
     1    1    2 1    
     2    1   24 1    
     3    1   25 1    
     4    1   26 1    
     5    2    3 1    
     6    2   27 1    
     7    2   28 1    
     8    3    4 1    
     9    4   10 ar   
    10    4    5 ar   
    11    5    6 ar   
    12    6    7 ar   
    13    6   13 1    
    14    7    8 ar   
    15    7   29 1    
    16    8    9 1    
    17    8   10 ar   
    18    9   30 1    
    19    9   31 1    
    20   10   11 1    
    21   11   12 3    
    22   13   14 am   
    23   13   32 1    
    24   14   15 2    
    25   14   16 1    
    26   16   17 1    
    27   16   33 1    
    28   16   34 1    
    29   17   23 ar   
    30   17   18 ar   
    31   18   19 ar   
    32   18   35 1    
    33   19   20 1    
    34   19   21 ar   
    35   21   22 ar   
    36   21   36 1    
    37   22   23 ar   
    38   22   37 1    
    39   23   38 1    
@<TRIPOS>SUBSTRUCTURE
@<TRIPOS>MOLECULE
18627-1
38   39   0
SMALL
NO_CHARGES


@<TRIPOS>ATOM
      1 C1         24.0733   12.4028   30.2323 C.3       1 UNK        -0.3687
      2 C16        23.3271   11.0818   30.4341 C.3       1 UNK         0.3384
      3 O1         22.2086   11.3387   31.2785 O.3       1 UNK        -0.4715
      4 C2         21.4076   10.2889   31.6938 C.ar      1 UNK         0.8828
      5 N1         21.7457    9.0394   31.2730 N.ar      1 UNK        -0.8071
      6 C3         20.9690    8.0101   31.6444 C.ar      1 UNK         0.7757
      7 C4         19.8628    8.1544   32.4699 C.ar      1 UNK        -0.8004
      8 C5         19.5194    9.4254   32.8937 C.ar      1 UNK         0.8138
      9 N2         18.3843    9.5057   33.6914 N.pl3     1 UNK        -0.9616
     10 C6         20.2911   10.5310   32.5018 C.ar      1 UNK        -0.7975
     11 C7         19.9686   11.9007   32.8839 C.1       1 UNK         0.5902
     12 N3         19.7198   12.9914   33.1811 N.1       1 UNK        -0.6048
     13 N4         21.4264    6.8283   31.0989 N.am      1 UNK        -0.5845
     14 C8         20.8492    5.6257   31.0244 C.2       1 UNK         0.7816
     15 O2         19.7218    5.3642   31.4396 O.2       1 UNK        -0.6203
     16 C9         21.6453    4.5492   30.2959 C.3       1 UNK        -0.6555
     17 C10        23.0487    4.3416   30.8592 C.ar      1 UNK         0.3961
     18 C11        24.1093    5.1752   30.4706 C.ar      1 UNK        -0.3586
     19 C12        25.3879    4.9247   30.9874 C.ar      1 UNK         0.0627
     20 C13        25.5914    3.9088   31.9220 C.ar      1 UNK        -0.1089
     21 CL1        27.1634    3.6317   32.5717 Cl        1 UNK        -0.1132
     22 C14        24.5221    3.1087   32.3472 C.ar      1 UNK         0.0163
     23 C15        23.2656    3.3183   31.7864 C.ar      1 UNK        -0.3245
     24 H1         24.9321   12.2709   29.5744 H         1 UNK         0.0977
     25 H2         23.4201   13.1517   29.7829 H         1 UNK         0.1153
     26 H3         24.4313   12.7993   31.1825 H         1 UNK         0.1152
     27 H4         22.9953   10.6839   29.4725 H         1 UNK         0.0193
     28 H5         23.9938   10.3455   30.8889 H         1 UNK         0.0213
     29 H6         19.2779    7.3034   32.7765 H         1 UNK         0.2903
     30 H7         17.9030    8.6579   33.9746 H         1 UNK         0.4632
     31 H8         17.9995   10.4112   33.9502 H         1 UNK         0.4587
     32 H9         22.3474    6.9287   30.7127 H         1 UNK         0.3132
     33 H10        21.0677    3.6264   30.3382 H         1 UNK         0.2102
     34 H11        21.6980    4.8249   29.2464 H         1 UNK         0.2028
     35 H12        23.9358    5.9959   29.7873 H         1 UNK         0.1928
     36 H13        26.2343    5.5167   30.6688 H         1 UNK         0.1107
     37 H14        24.6899    2.3499   33.0974 H         1 UNK         0.1251
     38 H15        22.4560    2.6652   32.0825 H         1 UNK         0.1836
@<TRIPOS>BOND
     1    1    2 1    
     2    1   24 1    
     3    1   25 1    
     4    1   26 1    
     5    2    3 1    
     6    2   27 1    
     7    2   28 1    
     8    3    4 1    
     9    4   10 ar   
    10    4    5 ar   
    11    5    6 ar   
    12    6    7 ar   
    13    6   13 1    
    14    7    8 ar   
    15    7   29 1    
    16    8    9 1    
    17    8   10 ar   
    18    9   30 1    
    19    9   31 1    
    20   10   11 1    
    21   11   12 3    
    22   13   14 am   
    23   13   32 1    
    24   14   15 2    
    25   14   16 1    
    26   16   17 1    
    27   16   33 1    
    28   16   34 1    
    29   17   23 ar   
    30   17   18 ar   
    31   18   19 ar   
    32   18   35 1    
    33   19   20 ar   
    34   19   36 1    
    35   20   21 1    
    36   20   22 ar   
    37   22   23 ar   
    38   22   37 1    
    39   23   38 1    
@<TRIPOS>SUBSTRUCTURE
@<TRIPOS>MOLECULE
18628-1
41   42   0
SMALL
NO_CHARGES


@<TRIPOS>ATOM
      1 C1         24.0733   12.4028   30.2323 C.3       1 UNK        -0.3715
      2 C17        23.3271   11.0818   30.4341 C.3       1 UNK         0.3522
      3 O1         22.2086   11.3387   31.2785 O.3       1 UNK        -0.4770
      4 C2         21.4076   10.2889   31.6938 C.ar      1 UNK         0.8786
      5 N1         21.7457    9.0394   31.2730 N.ar      1 UNK        -0.8084
      6 C3         20.9690    8.0101   31.6444 C.ar      1 UNK         0.7576
      7 C4         19.8628    8.1544   32.4699 C.ar      1 UNK        -0.7986
      8 C5         19.5194    9.4254   32.8937 C.ar      1 UNK         0.8171
      9 N2         18.3843    9.5057   33.6914 N.pl3     1 UNK        -0.9601
     10 C6         20.2911   10.5310   32.5018 C.ar      1 UNK        -0.7984
     11 C7         19.9686   11.9007   32.8839 C.1       1 UNK         0.5808
     12 N3         19.7198   12.9914   33.1811 N.1       1 UNK        -0.5959
     13 N4         21.4264    6.8283   31.0989 N.am      1 UNK        -0.5225
     14 C8         20.8492    5.6257   31.0244 C.2       1 UNK         0.7321
     15 O2         19.7218    5.3642   31.4396 O.2       1 UNK        -0.6173
     16 C9         21.6453    4.5492   30.2959 C.3       1 UNK        -0.5938
     17 C10        23.0487    4.3416   30.8592 C.ar      1 UNK         0.1964
     18 C11        24.1093    5.1752   30.4706 C.ar      1 UNK         0.1413
     19 C12        23.9206    6.3206   29.4917 C.3       1 UNK        -0.4323
     20 C13        25.3879    4.9247   30.9874 C.ar      1 UNK        -0.2282
     21 C14        25.5914    3.9088   31.9220 C.ar      1 UNK        -0.1546
     22 C15        24.5221    3.1087   32.3472 C.ar      1 UNK        -0.1376
     23 C16        23.2656    3.3183   31.7864 C.ar      1 UNK        -0.2250
     24 H1         24.4313   12.7993   31.1825 H         1 UNK         0.1139
     25 H2         24.9321   12.2709   29.5744 H         1 UNK         0.0992
     26 H3         23.4201   13.1517   29.7829 H         1 UNK         0.1142
     27 H4         22.9956   10.6839   29.4724 H         1 UNK         0.0186
     28 H5         23.9947   10.3455   30.8878 H         1 UNK         0.0195
     29 H6         19.2822    7.3015   32.7787 H         1 UNK         0.2899
     30 H7         17.9995   10.4112   33.9502 H         1 UNK         0.4580
     31 H8         17.9030    8.6579   33.9746 H         1 UNK         0.4623
     32 H9         22.3325    6.9418   30.6789 H         1 UNK         0.2999
     33 H10        21.0380    3.6469   30.3038 H         1 UNK         0.2021
     34 H11        21.7159    4.8449   29.2516 H         1 UNK         0.1919
     35 H12        23.0894    6.9631   29.7843 H         1 UNK         0.1247
     36 H13        24.8059    6.9542   29.4277 H         1 UNK         0.1341
     37 H14        23.7349    5.9152   28.5008 H         1 UNK         0.1359
     38 H15        26.2334    5.5122   30.6585 H         1 UNK         0.1600
     39 H16        26.5792    3.7322   32.3257 H         1 UNK         0.1476
     40 H17        24.6906    2.3460   33.0937 H         1 UNK         0.1416
     41 H18        22.4530    2.6595   32.0580 H         1 UNK         0.1515
@<TRIPOS>BOND
     1    1    2 1    
     2    1   24 1    
     3    1   25 1    
     4    1   26 1    
     5    2    3 1    
     6    2   27 1    
     7    2   28 1    
     8    3    4 1    
     9    4   10 ar   
    10    4    5 ar   
    11    5    6 ar   
    12    6    7 ar   
    13    6   13 1    
    14    7    8 ar   
    15    7   29 1    
    16    8    9 1    
    17    8   10 ar   
    18    9   30 1    
    19    9   31 1    
    20   10   11 1    
    21   11   12 3    
    22   13   14 am   
    23   13   32 1    
    24   14   15 2    
    25   14   16 1    
    26   16   17 1    
    27   16   33 1    
    28   16   34 1    
    29   17   23 ar   
    30   17   18 ar   
    31   18   19 1    
    32   18   20 ar   
    33   19   35 1    
    34   19   36 1    
    35   19   37 1    
    36   20   21 ar   
    37   20   38 1    
    38   21   22 ar   
    39   21   39 1    
    40   22   23 ar   
    41   22   40 1    
    42   23   41 1    
@<TRIPOS>SUBSTRUCTURE
@<TRIPOS>MOLECULE
18629-1
41   42   0
SMALL
NO_CHARGES


@<TRIPOS>ATOM
      1 C1         24.0733   12.4028   30.2323 C.3       1 UNK        -0.3740
      2 C17        23.3271   11.0818   30.4341 C.3       1 UNK         0.3402
      3 O1         22.2086   11.3387   31.2785 O.3       1 UNK        -0.4711
      4 C2         21.4076   10.2889   31.6938 C.ar      1 UNK         0.8687
      5 N1         21.7457    9.0394   31.2730 N.ar      1 UNK        -0.8121
      6 C3         20.9690    8.0101   31.6444 C.ar      1 UNK         0.7792
      7 C4         19.8628    8.1544   32.4699 C.ar      1 UNK        -0.7989
      8 C5         19.5194    9.4254   32.8937 C.ar      1 UNK         0.8065
      9 N2         18.3843    9.5057   33.6914 N.pl3     1 UNK        -0.9540
     10 C6         20.2911   10.5310   32.5018 C.ar      1 UNK        -0.7888
     11 C7         19.9686   11.9007   32.8839 C.1       1 UNK         0.5784
     12 N3         19.7198   12.9914   33.1811 N.1       1 UNK        -0.5957
     13 N4         21.4264    6.8283   31.0989 N.am      1 UNK        -0.5642
     14 C8         20.8492    5.6257   31.0244 C.2       1 UNK         0.7485
     15 O2         19.7218    5.3642   31.4396 O.2       1 UNK        -0.6176
     16 C9         21.6453    4.5492   30.2959 C.3       1 UNK        -0.5774
     17 C10        23.0487    4.3416   30.8592 C.ar      1 UNK         0.3664
     18 C11        23.2656    3.3183   31.7864 C.ar      1 UNK        -0.4099
     19 C12        24.5221    3.1087   32.3472 C.ar      1 UNK         0.3059
     20 C13        24.7364    2.0197   33.3562 C.3       1 UNK        -0.4819
     21 C14        25.5914    3.9088   31.9220 C.ar      1 UNK        -0.3010
     22 C15        25.3879    4.9247   30.9874 C.ar      1 UNK        -0.0379
     23 C16        24.1093    5.1752   30.4706 C.ar      1 UNK        -0.3434
     24 H1         24.4313   12.7993   31.1825 H         1 UNK         0.1136
     25 H2         24.9321   12.2709   29.5744 H         1 UNK         0.1002
     26 H3         23.4201   13.1517   29.7829 H         1 UNK         0.1167
     27 H4         22.9932   10.6830   29.4750 H         1 UNK         0.0209
     28 H5         23.9955   10.3505   30.8917 H         1 UNK         0.0280
     29 H6         19.2713    7.3009   32.7656 H         1 UNK         0.2908
     30 H7         17.9995   10.4112   33.9502 H         1 UNK         0.4569
     31 H8         17.9030    8.6579   33.9746 H         1 UNK         0.4611
     32 H9         22.3435    6.8922   30.6907 H         1 UNK         0.3010
     33 H10        21.0921    3.6097   30.3362 H         1 UNK         0.1909
     34 H11        21.7122    4.8135   29.2402 H         1 UNK         0.1783
     35 H12        22.4440    2.6875   32.0965 H         1 UNK         0.1863
     36 H13        25.7794    2.0176   33.6726 H         1 UNK         0.1381
     37 H14        24.0949    2.1935   34.2202 H         1 UNK         0.1377
     38 H15        24.4904    1.0566   32.9090 H         1 UNK         0.1470
     39 H16        26.5794    3.7412   32.3264 H         1 UNK         0.1635
     40 H17        26.2222    5.5359   30.6742 H         1 UNK         0.1286
     41 H18        23.9684    5.9663   29.7482 H         1 UNK         0.1746
@<TRIPOS>BOND
     1    1    2 1    
     2    1   24 1    
     3    1   25 1    
     4    1   26 1    
     5    2    3 1    
     6    2   27 1    
     7    2   28 1    
     8    3    4 1    
     9    4   10 ar   
    10    4    5 ar   
    11    5    6 ar   
    12    6    7 ar   
    13    6   13 1    
    14    7    8 ar   
    15    7   29 1    
    16    8    9 1    
    17    8   10 ar   
    18    9   30 1    
    19    9   31 1    
    20   10   11 1    
    21   11   12 3    
    22   13   14 am   
    23   13   32 1    
    24   14   15 2    
    25   14   16 1    
    26   16   17 1    
    27   16   33 1    
    28   16   34 1    
    29   17   23 ar   
    30   17   18 ar   
    31   18   19 ar   
    32   18   35 1    
    33   19   20 1    
    34   19   21 ar   
    35   20   36 1    
    36   20   37 1    
    37   20   38 1    
    38   21   22 ar   
    39   21   39 1    
    40   22   23 ar   
    41   22   40 1    
    42   23   41 1    
@<TRIPOS>SUBSTRUCTURE
@<TRIPOS>MOLECULE
18630-1
41   42   0
SMALL
NO_CHARGES


@<TRIPOS>ATOM
      1 C1         24.0733   12.4028   30.2323 C.3       1 UNK        -0.3765
      2 C17        23.3271   11.0818   30.4341 C.3       1 UNK         0.3548
      3 O1         22.2086   11.3387   31.2785 O.3       1 UNK        -0.4746
      4 C2         21.4076   10.2889   31.6938 C.ar      1 UNK         0.8682
      5 N1         21.7457    9.0394   31.2730 N.ar      1 UNK        -0.8099
      6 C3         20.9690    8.0101   31.6444 C.ar      1 UNK         0.7822
      7 C4         19.8628    8.1544   32.4699 C.ar      1 UNK        -0.8001
      8 C5         19.5194    9.4254   32.8937 C.ar      1 UNK         0.8067
      9 N2         18.3843    9.5057   33.6914 N.pl3     1 UNK        -0.9544
     10 C6         20.2911   10.5310   32.5018 C.ar      1 UNK        -0.7891
     11 C7         19.9686   11.9007   32.8839 C.1       1 UNK         0.5805
     12 N3         19.7198   12.9914   33.1811 N.1       1 UNK        -0.5969
     13 N4         21.4264    6.8283   31.0989 N.am      1 UNK        -0.5740
     14 C8         20.8492    5.6257   31.0244 C.2       1 UNK         0.7664
     15 O2         19.7218    5.3642   31.4396 O.2       1 UNK        -0.6263
     16 C9         21.6453    4.5492   30.2959 C.3       1 UNK        -0.6122
     17 C10        23.0487    4.3416   30.8592 C.ar      1 UNK         0.3127
     18 C11        24.1093    5.1752   30.4706 C.ar      1 UNK        -0.2712
     19 C12        25.3879    4.9247   30.9874 C.ar      1 UNK        -0.1986
     20 C13        25.5914    3.9088   31.9220 C.ar      1 UNK         0.2078
     21 C14        26.9628    3.6763   32.4835 C.3       1 UNK        -0.4374
     22 C15        24.5221    3.1087   32.3472 C.ar      1 UNK        -0.2113
     23 C16        23.2656    3.3183   31.7864 C.ar      1 UNK        -0.2595
     24 H1         24.9321   12.2709   29.5744 H         1 UNK         0.1009
     25 H2         23.4201   13.1517   29.7829 H         1 UNK         0.1144
     26 H3         24.4313   12.7993   31.1825 H         1 UNK         0.1149
     27 H4         22.9932   10.6831   29.4750 H         1 UNK         0.0209
     28 H5         23.9954   10.3504   30.8918 H         1 UNK         0.0192
     29 H6         19.2713    7.3010   32.7656 H         1 UNK         0.2913
     30 H7         17.9030    8.6579   33.9746 H         1 UNK         0.4615
     31 H8         17.9995   10.4112   33.9502 H         1 UNK         0.4562
     32 H9         22.3436    6.8922   30.6909 H         1 UNK         0.3088
     33 H10        21.0921    3.6097   30.3365 H         1 UNK         0.1940
     34 H11        21.7120    4.8132   29.2401 H         1 UNK         0.1929
     35 H12        23.9684    5.9664   29.7483 H         1 UNK         0.1666
     36 H13        26.2222    5.5360   30.6744 H         1 UNK         0.1578
     37 H14        26.9298    2.8490   33.1924 H         1 UNK         0.1283
     38 H15        27.6507    3.4336   31.6736 H         1 UNK         0.1328
     39 H16        27.3046    4.5776   32.9926 H         1 UNK         0.1315
     40 H17        24.6764    2.3243   33.0742 H         1 UNK         0.1581
     41 H18        22.4440    2.6876   32.0966 H         1 UNK         0.1628
@<TRIPOS>BOND
     1    1    2 1    
     2    1   24 1    
     3    1   25 1    
     4    1   26 1    
     5    2    3 1    
     6    2   27 1    
     7    2   28 1    
     8    3    4 1    
     9    4   10 ar   
    10    4    5 ar   
    11    5    6 ar   
    12    6    7 ar   
    13    6   13 1    
    14    7    8 ar   
    15    7   29 1    
    16    8    9 1    
    17    8   10 ar   
    18    9   30 1    
    19    9   31 1    
    20   10   11 1    
    21   11   12 3    
    22   13   14 am   
    23   13   32 1    
    24   14   15 2    
    25   14   16 1    
    26   16   17 1    
    27   16   33 1    
    28   16   34 1    
    29   17   23 ar   
    30   17   18 ar   
    31   18   19 ar   
    32   18   35 1    
    33   19   20 ar   
    34   19   36 1    
    35   20   21 1    
    36   20   22 ar   
    37   21   37 1    
    38   21   38 1    
    39   21   39 1    
    40   22   23 ar   
    41   22   40 1    
    42   23   41 1    
@<TRIPOS>SUBSTRUCTURE
@<TRIPOS>MOLECULE
18631-1
42   43   0
SMALL
NO_CHARGES


@<TRIPOS>ATOM
      1 C1         24.0733   12.4028   30.2323 C.3       1 UNK        -0.4439
      2 C17        23.3271   11.0818   30.4341 C.3       1 UNK         0.3598
      3 O1         22.2086   11.3387   31.2785 O.3       1 UNK        -0.4597
      4 C2         21.4076   10.2889   31.6938 C.ar      1 UNK         0.7829
      5 N1         21.7457    9.0394   31.2730 N.ar      1 UNK        -0.7630
      6 C3         20.9690    8.0101   31.6444 C.ar      1 UNK         0.7693
      7 C4         19.8628    8.1544   32.4699 C.ar      1 UNK        -0.7483
      8 C5         19.5194    9.4254   32.8937 C.ar      1 UNK         0.7336
      9 N2         18.3843    9.5057   33.6914 N.pl3     1 UNK        -0.9335
     10 C6         20.2911   10.5310   32.5018 C.ar      1 UNK        -0.7191
     11 C7         19.9686   11.9007   32.8839 C.1       1 UNK         0.5675
     12 N3         19.7198   12.9914   33.1811 N.1       1 UNK        -0.5978
     13 N4         21.4264    6.8283   31.0989 N.am      1 UNK        -0.6151
     14 C8         20.8492    5.6257   31.0244 C.2       1 UNK         0.7145
     15 O2         19.7218    5.3642   31.4396 O.2       1 UNK        -0.6111
     16 C9         21.6453    4.5492   30.2959 C.3       1 UNK        -0.4309
     17 C10        23.0487    4.3416   30.8592 C.ar      1 UNK         0.0699
     18 C11        24.1093    5.1752   30.4706 C.ar      1 UNK         0.2647
     19 O3         23.8251    6.2111   29.5994 O.3       1 UNK        -0.3063
     20 C12        24.7824    7.2540   29.4258 C.3       1 UNK        -0.1628
     21 C13        25.3879    4.9247   30.9874 C.ar      1 UNK        -0.2592
     22 C14        25.5914    3.9088   31.9220 C.ar      1 UNK        -0.1219
     23 C15        24.5221    3.1087   32.3472 C.ar      1 UNK        -0.1850
     24 C16        23.2656    3.3183   31.7864 C.ar      1 UNK        -0.1703
     25 H1         24.9321   12.2709   29.5744 H         1 UNK         0.1170
     26 H2         23.4201   13.1517   29.7829 H         1 UNK         0.1323
     27 H3         24.4313   12.7993   31.1825 H         1 UNK         0.1290
     28 H4         22.9947   10.6820   29.4735 H         1 UNK         0.0249
     29 H5         23.9952   10.3471   30.8896 H         1 UNK         0.0365
     30 H6         19.2676    7.3074   32.7664 H         1 UNK         0.2813
     31 H7         17.9030    8.6579   33.9746 H         1 UNK         0.4557
     32 H8         17.9995   10.4112   33.9502 H         1 UNK         0.4515
     33 H9         22.3310    6.9312   30.6649 H         1 UNK         0.3365
     34 H10        21.0955    3.6112   30.2940 H         1 UNK         0.1506
     35 H11        21.7116    4.8741   29.2628 H         1 UNK         0.1536
     36 H12        25.0654    7.7073   30.3780 H         1 UNK         0.0935
     37 H13        25.6789    6.8955   28.9178 H         1 UNK         0.1316
     38 H14        24.3494    8.0402   28.8073 H         1 UNK         0.1505
     39 H15        26.2368    5.5145   30.6784 H         1 UNK         0.1742
     40 H16        26.5795    3.7320   32.3246 H         1 UNK         0.1452
     41 H17        24.6847    2.3339   33.0832 H         1 UNK         0.1475
     42 H18        22.4588    2.6569   32.0727 H         1 UNK         0.1542
@<TRIPOS>BOND
     1    1    2 1    
     2    1   25 1    
     3    1   26 1    
     4    1   27 1    
     5    2    3 1    
     6    2   28 1    
     7    2   29 1    
     8    3    4 1    
     9    4   10 ar   
    10    4    5 ar   
    11    5    6 ar   
    12    6    7 ar   
    13    6   13 1    
    14    7    8 ar   
    15    7   30 1    
    16    8    9 1    
    17    8   10 ar   
    18    9   31 1    
    19    9   32 1    
    20   10   11 1    
    21   11   12 3    
    22   13   14 am   
    23   13   33 1    
    24   14   15 2    
    25   14   16 1    
    26   16   17 1    
    27   16   34 1    
    28   16   35 1    
    29   17   24 ar   
    30   17   18 ar   
    31   18   19 1    
    32   18   21 ar   
    33   19   20 1    
    34   20   36 1    
    35   20   37 1    
    36   20   38 1    
    37   21   22 ar   
    38   21   39 1    
    39   22   23 ar   
    40   22   40 1    
    41   23   24 ar   
    42   23   41 1    
    43   24   42 1    
@<TRIPOS>SUBSTRUCTURE
@<TRIPOS>MOLECULE
18632-1
42   43   0
SMALL
NO_CHARGES


@<TRIPOS>ATOM
      1 C1         24.0733   12.4028   30.2323 C.3       1 UNK        -0.3744
      2 C17        23.3271   11.0818   30.4341 C.3       1 UNK         0.3674
      3 O1         22.2086   11.3387   31.2785 O.3       1 UNK        -0.4810
      4 C2         21.4076   10.2889   31.6938 C.ar      1 UNK         0.8809
      5 N1         21.7457    9.0394   31.2730 N.ar      1 UNK        -0.8133
      6 C3         20.9690    8.0101   31.6444 C.ar      1 UNK         0.7638
      7 C4         19.8628    8.1544   32.4699 C.ar      1 UNK        -0.7937
      8 C5         19.5194    9.4254   32.8937 C.ar      1 UNK         0.8132
      9 N2         18.3843    9.5057   33.6914 N.pl3     1 UNK        -0.9586
     10 C6         20.2911   10.5310   32.5018 C.ar      1 UNK        -0.7980
     11 C7         19.9686   11.9007   32.8839 C.1       1 UNK         0.5832
     12 N3         19.7198   12.9914   33.1811 N.1       1 UNK        -0.5971
     13 N4         21.4264    6.8283   31.0989 N.am      1 UNK        -0.5456
     14 C8         20.8492    5.6257   31.0244 C.2       1 UNK         0.7442
     15 O2         19.7218    5.3642   31.4396 O.2       1 UNK        -0.6159
     16 C9         21.6453    4.5492   30.2959 C.3       1 UNK        -0.6073
     17 C10        23.0487    4.3416   30.8592 C.ar      1 UNK         0.4717
     18 C11        23.2656    3.3183   31.7864 C.ar      1 UNK        -0.5284
     19 C12        24.5221    3.1087   32.3472 C.ar      1 UNK         0.4885
     20 O3         24.6165    2.1143   33.2977 O.3       1 UNK        -0.4014
     21 C13        25.8225    1.9829   34.0425 C.3       1 UNK        -0.0338
     22 C14        25.5914    3.9088   31.9220 C.ar      1 UNK        -0.3705
     23 C15        25.3879    4.9247   30.9874 C.ar      1 UNK        -0.0042
     24 C16        24.1093    5.1752   30.4706 C.ar      1 UNK        -0.4265
     25 H1         24.9321   12.2709   29.5744 H         1 UNK         0.1008
     26 H2         23.4201   13.1517   29.7829 H         1 UNK         0.1139
     27 H3         24.4313   12.7993   31.1825 H         1 UNK         0.1125
     28 H4         22.9931   10.7020   29.4686 H         1 UNK         0.0133
     29 H5         23.9936   10.3555   30.8993 H         1 UNK         0.0172
     30 H6         19.2795    7.3021   32.7752 H         1 UNK         0.2877
     31 H7         17.9995   10.4112   33.9502 H         1 UNK         0.4577
     32 H8         17.9030    8.6579   33.9746 H         1 UNK         0.4621
     33 H9         22.3245    6.9422   30.6626 H         1 UNK         0.3009
     34 H10        21.0681    3.6260   30.3297 H         1 UNK         0.2054
     35 H11        21.7174    4.8305   29.2486 H         1 UNK         0.1811
     36 H12        22.4617    2.6523   32.0647 H         1 UNK         0.1964
     37 H13        25.6996    1.2001   34.7908 H         1 UNK         0.1152
     38 H14        26.6593    1.6972   33.4036 H         1 UNK         0.0874
     39 H15        26.0724    2.9044   34.5706 H         1 UNK         0.0808
     40 H16        26.5885    3.7499   32.3027 H         1 UNK         0.1791
     41 H17        26.2224    5.5229   30.6479 H         1 UNK         0.1360
     42 H18        23.9417    5.9919   29.7820 H         1 UNK         0.1895
@<TRIPOS>BOND
     1    1    2 1    
     2    1   25 1    
     3    1   26 1    
     4    1   27 1    
     5    2    3 1    
     6    2   28 1    
     7    2   29 1    
     8    3    4 1    
     9    4   10 ar   
    10    4    5 ar   
    11    5    6 ar   
    12    6    7 ar   
    13    6   13 1    
    14    7    8 ar   
    15    7   30 1    
    16    8    9 1    
    17    8   10 ar   
    18    9   31 1    
    19    9   32 1    
    20   10   11 1    
    21   11   12 3    
    22   13   14 am   
    23   13   33 1    
    24   14   15 2    
    25   14   16 1    
    26   16   17 1    
    27   16   34 1    
    28   16   35 1    
    29   17   24 ar   
    30   17   18 ar   
    31   18   19 ar   
    32   18   36 1    
    33   19   20 1    
    34   19   22 ar   
    35   20   21 1    
    36   21   37 1    
    37   21   38 1    
    38   21   39 1    
    39   22   23 ar   
    40   22   40 1    
    41   23   24 ar   
    42   23   41 1    
    43   24   42 1    
@<TRIPOS>SUBSTRUCTURE
@<TRIPOS>MOLECULE
18633-1
42   43   0
SMALL
NO_CHARGES


@<TRIPOS>ATOM
      1 C1         24.0733   12.4028   30.2323 C.3       1 UNK        -0.3777
      2 C17        23.3271   11.0818   30.4341 C.3       1 UNK         0.3672
      3 O1         22.2086   11.3387   31.2785 O.3       1 UNK        -0.4785
      4 C2         21.4076   10.2889   31.6938 C.ar      1 UNK         0.8679
      5 N1         21.7457    9.0394   31.2730 N.ar      1 UNK        -0.8074
      6 C3         20.9690    8.0101   31.6444 C.ar      1 UNK         0.7664
      7 C4         19.8628    8.1544   32.4699 C.ar      1 UNK        -0.7876
      8 C5         19.5194    9.4254   32.8937 C.ar      1 UNK         0.7992
      9 N2         18.3843    9.5057   33.6914 N.pl3     1 UNK        -0.9518
     10 C6         20.2911   10.5310   32.5018 C.ar      1 UNK        -0.7863
     11 C7         19.9686   11.9007   32.8839 C.1       1 UNK         0.5807
     12 N3         19.7198   12.9914   33.1811 N.1       1 UNK        -0.5965
     13 N4         21.4264    6.8283   31.0989 N.am      1 UNK        -0.5439
     14 C8         20.8492    5.6257   31.0244 C.2       1 UNK         0.7298
     15 O2         19.7218    5.3642   31.4396 O.2       1 UNK        -0.6178
     16 C9         21.6453    4.5492   30.2959 C.3       1 UNK        -0.5397
     17 C10        23.0487    4.3416   30.8592 C.ar      1 UNK         0.2183
     18 C11        24.1093    5.1752   30.4706 C.ar      1 UNK        -0.1786
     19 C12        25.3879    4.9247   30.9874 C.ar      1 UNK        -0.3065
     20 C13        25.5914    3.9088   31.9220 C.ar      1 UNK         0.4085
     21 C14        24.5221    3.1087   32.3472 C.ar      1 UNK        -0.2762
     22 C15        23.2656    3.3183   31.7864 C.ar      1 UNK        -0.2235
     23 O3         26.8531    3.6949   32.4386 O.3       1 UNK        -0.4162
     24 C16        26.9401    2.6720   33.3608 C.3       1 UNK         0.0133
     25 H1         24.4313   12.7993   31.1825 H         1 UNK         0.1133
     26 H2         24.9321   12.2709   29.5744 H         1 UNK         0.1021
     27 H3         23.4201   13.1517   29.7829 H         1 UNK         0.1145
     28 H4         22.9931   10.6831   29.4750 H         1 UNK         0.0157
     29 H5         23.9955   10.3504   30.8916 H         1 UNK         0.0166
     30 H6         19.2712    7.3009   32.7655 H         1 UNK         0.2890
     31 H7         17.9995   10.4112   33.9502 H         1 UNK         0.4565
     32 H8         17.9030    8.6579   33.9746 H         1 UNK         0.4604
     33 H9         22.3437    6.8921   30.6910 H         1 UNK         0.2905
     34 H10        21.0921    3.6096   30.3363 H         1 UNK         0.1872
     35 H11        21.7121    4.8134   29.2401 H         1 UNK         0.1707
     36 H12        23.9684    5.9663   29.7482 H         1 UNK         0.1628
     37 H13        26.2222    5.5359   30.6743 H         1 UNK         0.1700
     38 H14        24.6764    2.3242   33.0741 H         1 UNK         0.1709
     39 H15        22.4440    2.6876   32.0966 H         1 UNK         0.1681
     40 H16        27.9695    2.5822   33.7078 H         1 UNK         0.1052
     41 H17        26.2890    2.8898   34.2074 H         1 UNK         0.0692
     42 H18        26.6305    1.7361   32.8956 H         1 UNK         0.0741
@<TRIPOS>BOND
     1    1    2 1    
     2    1   25 1    
     3    1   26 1    
     4    1   27 1    
     5    2    3 1    
     6    2   28 1    
     7    2   29 1    
     8    3    4 1    
     9    4   10 ar   
    10    4    5 ar   
    11    5    6 ar   
    12    6    7 ar   
    13    6   13 1    
    14    7    8 ar   
    15    7   30 1    
    16    8    9 1    
    17    8   10 ar   
    18    9   31 1    
    19    9   32 1    
    20   10   11 1    
    21   11   12 3    
    22   13   14 am   
    23   13   33 1    
    24   14   15 2    
    25   14   16 1    
    26   16   17 1    
    27   16   34 1    
    28   16   35 1    
    29   17   22 ar   
    30   17   18 ar   
    31   18   19 ar   
    32   18   36 1    
    33   19   20 ar   
    34   19   37 1    
    35   20   21 ar   
    36   20   23 1    
    37   21   22 ar   
    38   21   38 1    
    39   22   39 1    
    40   23   24 1    
    41   24   40 1    
    42   24   41 1    
    43   24   42 1    
@<TRIPOS>SUBSTRUCTURE
@<TRIPOS>MOLECULE
18634-1
46   47   0
SMALL
NO_CHARGES


@<TRIPOS>ATOM
      1 C1         24.0733   12.4028   30.2323 C.3       1 UNK        -0.4523
      2 C18        23.3271   11.0818   30.4341 C.3       1 UNK         0.3558
      3 O1         22.2086   11.3387   31.2785 O.3       1 UNK        -0.4552
      4 C2         21.4076   10.2889   31.6938 C.ar      1 UNK         0.7610
      5 N1         21.7457    9.0394   31.2730 N.ar      1 UNK        -0.7442
      6 C3         20.9690    8.0101   31.6444 C.ar      1 UNK         0.7513
      7 C4         19.8628    8.1544   32.4699 C.ar      1 UNK        -0.7339
      8 C5         19.5194    9.4254   32.8937 C.ar      1 UNK         0.7190
      9 N2         18.3843    9.5057   33.6914 N.pl3     1 UNK        -0.9295
     10 C6         20.2911   10.5310   32.5018 C.ar      1 UNK        -0.7011
     11 C7         19.9686   11.9007   32.8839 C.1       1 UNK         0.5632
     12 N3         19.7198   12.9914   33.1811 N.1       1 UNK        -0.5968
     13 N4         21.4264    6.8283   31.0989 N.am      1 UNK        -0.5938
     14 C8         20.8492    5.6257   31.0244 C.2       1 UNK         0.6860
     15 O2         19.7218    5.3642   31.4396 O.2       1 UNK        -0.6098
     16 C9         21.6453    4.5492   30.2959 C.3       1 UNK        -0.3318
     17 C10        23.0487    4.3416   30.8592 C.ar      1 UNK         0.1577
     18 C11        24.1093    5.1752   30.4706 C.ar      1 UNK         0.1560
     19 O3         23.8251    6.2111   29.5994 O.3       1 UNK        -0.2768
     20 C12        24.7824    7.2540   29.4258 C.3       1 UNK        -0.1541
     21 C13        25.3879    4.9247   30.9874 C.ar      1 UNK        -0.2320
     22 C14        25.5914    3.9088   31.9220 C.ar      1 UNK        -0.3086
     23 C15        24.5221    3.1087   32.3472 C.ar      1 UNK         0.4318
     24 C16        23.2656    3.3183   31.7864 C.ar      1 UNK        -0.4430
     25 O4         24.6165    2.1143   33.2977 O.3       1 UNK        -0.4093
     26 C17        25.8225    1.9829   34.0425 C.3       1 UNK        -0.0104
     27 H1         24.9321   12.2709   29.5744 H         1 UNK         0.1187
     28 H2         23.4201   13.1517   29.7829 H         1 UNK         0.1345
     29 H3         24.4313   12.7993   31.1825 H         1 UNK         0.1313
     30 H4         22.9923   10.6829   29.4737 H         1 UNK         0.0275
     31 H5         23.9965   10.3468   30.8876 H         1 UNK         0.0418
     32 H6         19.2675    7.3077   32.7672 H         1 UNK         0.2802
     33 H7         17.9995   10.4112   33.9502 H         1 UNK         0.4507
     34 H8         17.9030    8.6579   33.9746 H         1 UNK         0.4549
     35 H9         22.3340    6.9317   30.6726 H         1 UNK         0.3179
     36 H10        21.0986    3.6093   30.2959 H         1 UNK         0.1331
     37 H11        21.7112    4.8755   29.2640 H         1 UNK         0.1172
     38 H12        25.6789    6.8955   28.9178 H         1 UNK         0.1293
     39 H13        24.3494    8.0402   28.8073 H         1 UNK         0.1440
     40 H14        25.0654    7.7073   30.3780 H         1 UNK         0.0856
     41 H15        26.2335    5.5260   30.6895 H         1 UNK         0.1924
     42 H16        26.5850    3.7612   32.3164 H         1 UNK         0.1805
     43 H17        22.4552    2.6724   32.0911 H         1 UNK         0.2009
     44 H18        26.6593    1.6972   33.4036 H         1 UNK         0.0762
     45 H19        26.0724    2.9044   34.5706 H         1 UNK         0.0767
     46 H20        25.6996    1.2001   34.7908 H         1 UNK         0.1075
@<TRIPOS>BOND
     1    1    2 1    
     2    1   27 1    
     3    1   28 1    
     4    1   29 1    
     5    2    3 1    
     6    2   30 1    
     7    2   31 1    
     8    3    4 1    
     9    4   10 ar   
    10    4    5 ar   
    11    5    6 ar   
    12    6    7 ar   
    13    6   13 1    
    14    7    8 ar   
    15    7   32 1    
    16    8    9 1    
    17    8   10 ar   
    18    9   33 1    
    19    9   34 1    
    20   10   11 1    
    21   11   12 3    
    22   13   14 am   
    23   13   35 1    
    24   14   15 2    
    25   14   16 1    
    26   16   17 1    
    27   16   36 1    
    28   16   37 1    
    29   17   24 ar   
    30   17   18 ar   
    31   18   19 1    
    32   18   21 ar   
    33   19   20 1    
    34   20   38 1    
    35   20   39 1    
    36   20   40 1    
    37   21   22 ar   
    38   21   41 1    
    39   22   23 ar   
    40   22   42 1    
    41   23   24 ar   
    42   23   25 1    
    43   24   43 1    
    44   25   26 1    
    45   26   44 1    
    46   26   45 1    
    47   26   46 1    
@<TRIPOS>SUBSTRUCTURE
@<TRIPOS>MOLECULE
18635-1
44   45   0
SMALL
NO_CHARGES


@<TRIPOS>ATOM
      1 C1         24.0733   12.4028   30.2323 C.3       1 UNK        -0.3864
      2 C18        23.3271   11.0818   30.4341 C.3       1 UNK         0.3461
      3 O1         22.2086   11.3387   31.2785 O.3       1 UNK        -0.4746
      4 C2         21.4076   10.2889   31.6938 C.ar      1 UNK         0.8712
      5 N1         21.7457    9.0394   31.2730 N.ar      1 UNK        -0.8145
      6 C3         20.9690    8.0101   31.6444 C.ar      1 UNK         0.7650
      7 C4         19.8628    8.1544   32.4699 C.ar      1 UNK        -0.7910
      8 C5         19.5194    9.4254   32.8937 C.ar      1 UNK         0.7975
      9 N2         18.3843    9.5057   33.6914 N.pl3     1 UNK        -0.9510
     10 C6         20.2911   10.5310   32.5018 C.ar      1 UNK        -0.7861
     11 C7         19.9686   11.9007   32.8839 C.1       1 UNK         0.5781
     12 N3         19.7198   12.9914   33.1811 N.1       1 UNK        -0.5962
     13 N4         21.4264    6.8283   31.0989 N.am      1 UNK        -0.5069
     14 C8         20.8492    5.6257   31.0244 C.2       1 UNK         0.6707
     15 O2         19.7218    5.3642   31.4396 O.2       1 UNK        -0.6084
     16 C9         21.6453    4.5492   30.2959 C.3       1 UNK        -0.4271
     17 C10        23.0487    4.3416   30.8592 C.ar      1 UNK         0.1412
     18 C11        24.1093    5.1752   30.4706 C.ar      1 UNK         0.1111
     19 C12        23.9206    6.3206   29.4917 C.3       1 UNK        -0.4226
     20 C13        25.3879    4.9247   30.9874 C.ar      1 UNK        -0.1906
     21 C14        25.5914    3.9088   31.9220 C.ar      1 UNK        -0.2851
     22 C15        24.5221    3.1087   32.3472 C.ar      1 UNK         0.2381
     23 C16        24.7285    2.0307   33.3926 C.3       1 UNK        -0.3655
     24 C17        23.2656    3.3183   31.7864 C.ar      1 UNK        -0.3529
     25 H1         24.9321   12.2709   29.5744 H         1 UNK         0.1031
     26 H2         23.4201   13.1517   29.7829 H         1 UNK         0.1182
     27 H3         24.4313   12.7993   31.1825 H         1 UNK         0.1169
     28 H4         22.9951   10.6835   29.4728 H         1 UNK         0.0254
     29 H5         23.9950   10.3461   30.8882 H         1 UNK         0.0255
     30 H6         19.2713    7.3044   32.7661 H         1 UNK         0.2913
     31 H7         17.9030    8.6579   33.9746 H         1 UNK         0.4588
     32 H8         17.9995   10.4112   33.9502 H         1 UNK         0.4567
     33 H9         22.3061    6.9595   30.6347 H         1 UNK         0.2974
     34 H10        21.0974    3.6091   30.3237 H         1 UNK         0.1662
     35 H11        21.6812    4.8441   29.2542 H         1 UNK         0.1509
     36 H12        23.0894    6.9631   29.7843 H         1 UNK         0.1266
     37 H13        24.8059    6.9542   29.4277 H         1 UNK         0.1284
     38 H14        23.7349    5.9152   28.5008 H         1 UNK         0.1353
     39 H15        26.2304    5.5207   30.6644 H         1 UNK         0.1564
     40 H16        26.5825    3.7337   32.3163 H         1 UNK         0.1711
     41 H17        25.6882    1.5313   33.2505 H         1 UNK         0.1092
     42 H18        24.7170    2.4684   34.3911 H         1 UNK         0.1127
     43 H19        23.9521    1.2671   33.3425 H         1 UNK         0.1099
     44 H20        22.4514    2.6636   32.0609 H         1 UNK         0.1801
@<TRIPOS>BOND
     1    1    2 1    
     2    1   25 1    
     3    1   26 1    
     4    1   27 1    
     5    2    3 1    
     6    2   28 1    
     7    2   29 1    
     8    3    4 1    
     9    4   10 ar   
    10    4    5 ar   
    11    5    6 ar   
    12    6    7 ar   
    13    6   13 1    
    14    7    8 ar   
    15    7   30 1    
    16    8    9 1    
    17    8   10 ar   
    18    9   31 1    
    19    9   32 1    
    20   10   11 1    
    21   11   12 3    
    22   13   14 am   
    23   13   33 1    
    24   14   15 2    
    25   14   16 1    
    26   16   17 1    
    27   16   34 1    
    28   16   35 1    
    29   17   24 ar   
    30   17   18 ar   
    31   18   19 1    
    32   18   20 ar   
    33   19   36 1    
    34   19   37 1    
    35   19   38 1    
    36   20   21 ar   
    37   20   39 1    
    38   21   22 ar   
    39   21   40 1    
    40   22   23 1    
    41   22   24 ar   
    42   23   41 1    
    43   23   42 1    
    44   23   43 1    
    45   24   44 1    
@<TRIPOS>SUBSTRUCTURE
@<TRIPOS>MOLECULE
18636-1
38   39   0
SMALL
NO_CHARGES


@<TRIPOS>ATOM
      1 C1         24.0733   12.4028   30.2323 C.3       1 UNK        -0.3326
      2 C16        23.3271   11.0818   30.4341 C.3       1 UNK         0.3166
      3 O1         22.2086   11.3387   31.2785 O.3       1 UNK        -0.4748
      4 C2         21.4076   10.2889   31.6938 C.ar      1 UNK         0.8913
      5 N1         21.7457    9.0394   31.2730 N.ar      1 UNK        -0.8211
      6 C3         20.9690    8.0101   31.6444 C.ar      1 UNK         0.7974
      7 C4         19.8628    8.1544   32.4699 C.ar      1 UNK        -0.8242
      8 C5         19.5194    9.4254   32.8937 C.ar      1 UNK         0.8283
      9 N2         18.3843    9.5057   33.6914 N.pl3     1 UNK        -0.9588
     10 C6         20.2911   10.5310   32.5018 C.ar      1 UNK        -0.8041
     11 C7         19.9686   11.9007   32.8839 C.1       1 UNK         0.5819
     12 N3         19.7198   12.9914   33.1811 N.1       1 UNK        -0.5939
     13 N4         21.4264    6.8283   31.0989 N.am      1 UNK        -0.5602
     14 C8         20.8492    5.6257   31.0244 C.2       1 UNK         0.7067
     15 O2         19.7218    5.3642   31.4396 O.2       1 UNK        -0.5934
     16 C9         21.6453    4.5492   30.2959 C.3       1 UNK        -0.4285
     17 C10        23.0487    4.3416   30.8592 C.ar      1 UNK         0.2845
     18 C11        24.1093    5.1752   30.4706 C.ar      1 UNK        -0.2213
     19 BR1        23.8590    6.6230   29.2548 Br        1 UNK        -0.0170
     20 C12        25.3879    4.9247   30.9874 C.ar      1 UNK         0.0049
     21 C13        25.5914    3.9088   31.9220 C.ar      1 UNK         0.0011
     22 C14        24.5221    3.1087   32.3472 C.ar      1 UNK        -0.1521
     23 BR2        24.8090    1.7627   33.6596 Br        1 UNK        -0.0569
     24 C15        23.2656    3.3183   31.7864 C.ar      1 UNK        -0.0585
     25 H1         24.9321   12.2709   29.5744 H         1 UNK         0.0898
     26 H2         23.4201   13.1517   29.7829 H         1 UNK         0.1035
     27 H3         24.4313   12.7993   31.1825 H         1 UNK         0.1093
     28 H4         22.9948   10.6829   29.4731 H         1 UNK         0.0377
     29 H5         23.9951   10.3462   30.8883 H         1 UNK         0.0116
     30 H6         19.2664    7.3082   32.7662 H         1 UNK         0.2912
     31 H7         17.9030    8.6579   33.9746 H         1 UNK         0.4625
     32 H8         17.9995   10.4112   33.9502 H         1 UNK         0.4572
     33 H9         22.3187    6.9706   30.6587 H         1 UNK         0.2937
     34 H10        21.0972    3.6095   30.3240 H         1 UNK         0.1610
     35 H11        21.6892    4.8369   29.2495 H         1 UNK         0.1391
     36 H12        26.2232    5.5268   30.6581 H         1 UNK         0.1121
     37 H13        26.5774    3.7240   32.3239 H         1 UNK         0.1104
     38 H14        22.4630    2.6540   32.0735 H         1 UNK         0.1054
@<TRIPOS>BOND
     1    1    2 1    
     2    1   25 1    
     3    1   26 1    
     4    1   27 1    
     5    2    3 1    
     6    2   28 1    
     7    2   29 1    
     8    3    4 1    
     9    4   10 ar   
    10    4    5 ar   
    11    5    6 ar   
    12    6    7 ar   
    13    6   13 1    
    14    7    8 ar   
    15    7   30 1    
    16    8    9 1    
    17    8   10 ar   
    18    9   31 1    
    19    9   32 1    
    20   10   11 1    
    21   11   12 3    
    22   13   14 am   
    23   13   33 1    
    24   14   15 2    
    25   14   16 1    
    26   16   17 1    
    27   16   34 1    
    28   16   35 1    
    29   17   24 ar   
    30   17   18 ar   
    31   18   19 1    
    32   18   20 ar   
    33   20   21 ar   
    34   20   36 1    
    35   21   22 ar   
    36   21   37 1    
    37   22   23 1    
    38   22   24 ar   
    39   24   38 1    
@<TRIPOS>SUBSTRUCTURE
@<TRIPOS>MOLECULE
18637-1
53   54   0
SMALL
NO_CHARGES


@<TRIPOS>ATOM
      1 C1         24.0733   12.4028   30.2323 C.3       1 UNK        -0.3255
      2 C20        23.3271   11.0818   30.4341 C.3       1 UNK         0.4157
      3 O1         22.2086   11.3387   31.2785 O.3       1 UNK        -0.5133
      4 C2         21.4076   10.2889   31.6938 C.ar      1 UNK         0.6666
      5 N1         21.7457    9.0394   31.2730 N.ar      1 UNK        -0.6489
      6 C3         20.9690    8.0101   31.6444 C.ar      1 UNK         0.7114
      7 C4         19.8628    8.1544   32.4699 C.ar      1 UNK        -0.6624
      8 C5         19.5194    9.4254   32.8937 C.ar      1 UNK         0.6308
      9 N2         18.3843    9.5057   33.6914 N.pl3     1 UNK        -0.8981
     10 C6         20.2911   10.5310   32.5018 C.ar      1 UNK        -0.6017
     11 C7         19.9686   11.9007   32.8839 C.1       1 UNK         0.5598
     12 N3         19.7198   12.9914   33.1811 N.1       1 UNK        -0.6006
     13 N4         21.4264    6.8283   31.0989 N.am      1 UNK        -0.6667
     14 C8         20.8492    5.6257   31.0244 C.2       1 UNK         0.6979
     15 O2         19.7218    5.3642   31.4396 O.2       1 UNK        -0.6012
     16 C9         21.6453    4.5492   30.2959 C.3       1 UNK        -0.3217
     17 C10        23.0487    4.3416   30.8592 C.ar      1 UNK         0.0782
     18 C11        24.1093    5.1752   30.4706 C.ar      1 UNK         0.1667
     19 O3         23.8251    6.2111   29.5994 O.3       1 UNK        -0.3515
     20 C12        24.7824    7.2540   29.4258 C.3       1 UNK         0.0408
     21 C13        25.3879    4.9247   30.9874 C.ar      1 UNK        -0.3241
     22 C14        25.5914    3.9088   31.9220 C.ar      1 UNK         0.1168
     23 C15        24.5221    3.1087   32.3472 C.ar      1 UNK         0.2177
     24 C16        23.2656    3.3183   31.7864 C.ar      1 UNK        -0.3345
     25 O4         24.6165    2.1143   33.2977 O.3       1 UNK        -0.2707
     26 C17        25.8225    1.9829   34.0425 C.3       1 UNK        -0.1785
     27 N5         26.9382    3.7149   32.4514 N.am      1 UNK        -0.4788
     28 C18        27.9201    4.6163   32.4189 C.2       1 UNK         0.7435
     29 O5         27.7847    5.7323   31.9258 O.2       1 UNK        -0.6388
     30 C19        29.1772    4.0948   33.0496 C.3       1 UNK        -0.5788
     31 H1         24.4313   12.7993   31.1825 H         1 UNK         0.0843
     32 H2         24.9321   12.2709   29.5744 H         1 UNK         0.0640
     33 H3         23.4201   13.1517   29.7829 H         1 UNK         0.0960
     34 H4         22.9931   10.6825   29.4752 H         1 UNK         0.0134
     35 H5         23.9950   10.3501   30.8916 H         1 UNK         0.0548
     36 H6         19.2716    7.3005   32.7650 H         1 UNK         0.2621
     37 H7         17.9995   10.4112   33.9502 H         1 UNK         0.4390
     38 H8         17.9030    8.6579   33.9746 H         1 UNK         0.4530
     39 H9         22.3313    6.8853   30.6516 H         1 UNK         0.3783
     40 H10        21.0931    3.6096   30.3413 H         1 UNK         0.1213
     41 H11        21.7058    4.8074   29.2383 H         1 UNK         0.1266
     42 H12        25.0654    7.7073   30.3780 H         1 UNK        -0.0004
     43 H13        25.6789    6.8955   28.9178 H         1 UNK         0.0830
     44 H14        24.3494    8.0402   28.8073 H         1 UNK         0.1032
     45 H15        26.2370    5.5238   30.6972 H         1 UNK         0.2415
     46 H16        22.4431    2.6924   32.1024 H         1 UNK         0.1985
     47 H17        25.6996    1.2001   34.7908 H         1 UNK         0.1421
     48 H18        26.6593    1.6972   33.4036 H         1 UNK         0.1268
     49 H19        26.0724    2.9044   34.5706 H         1 UNK         0.1202
     50 H20        27.0061    2.7877   32.8461 H         1 UNK         0.3184
     51 H21        29.0114    3.0769   33.4024 H         1 UNK         0.1742
     52 H22        29.9812    4.0979   32.3136 H         1 UNK         0.1687
     53 H23        29.4524    4.7307   33.8910 H         1 UNK         0.1809
@<TRIPOS>BOND
     1    1    2 1    
     2    1   31 1    
     3    1   32 1    
     4    1   33 1    
     5    2    3 1    
     6    2   34 1    
     7    2   35 1    
     8    3    4 1    
     9    4   10 ar   
    10    4    5 ar   
    11    5    6 ar   
    12    6    7 ar   
    13    6   13 1    
    14    7    8 ar   
    15    7   36 1    
    16    8    9 1    
    17    8   10 ar   
    18    9   37 1    
    19    9   38 1    
    20   10   11 1    
    21   11   12 3    
    22   13   14 am   
    23   13   39 1    
    24   14   15 2    
    25   14   16 1    
    26   16   17 1    
    27   16   40 1    
    28   16   41 1    
    29   17   24 ar   
    30   17   18 ar   
    31   18   19 1    
    32   18   21 ar   
    33   19   20 1    
    34   20   42 1    
    35   20   43 1    
    36   20   44 1    
    37   21   22 ar   
    38   21   45 1    
    39   22   23 ar   
    40   22   27 1    
    41   23   24 ar   
    42   23   25 1    
    43   24   46 1    
    44   25   26 1    
    45   26   47 1    
    46   26   48 1    
    47   26   49 1    
    48   27   28 am   
    49   27   50 1    
    50   28   29 2    
    51   28   30 1    
    52   30   51 1    
    53   30   52 1    
    54   30   53 1    
@<TRIPOS>SUBSTRUCTURE
@<TRIPOS>MOLECULE
18638-1
52   53   0
SMALL
NO_CHARGES


@<TRIPOS>ATOM
      1 C1         24.0733   12.4028   30.2323 C.3       1 UNK        -0.3811
      2 C19        23.3271   11.0818   30.4341 C.3       1 UNK         0.3829
      3 O1         22.2086   11.3387   31.2785 O.3       1 UNK        -0.4979
      4 C2         21.4076   10.2889   31.6938 C.ar      1 UNK         0.9122
      5 N1         21.7457    9.0394   31.2730 N.ar      1 UNK        -0.8622
      6 C3         20.9690    8.0101   31.6444 C.ar      1 UNK         0.8371
      7 C4         19.8628    8.1544   32.4699 C.ar      1 UNK        -0.8086
      8 C5         19.5194    9.4254   32.8937 C.ar      1 UNK         0.7989
      9 N2         18.3843    9.5057   33.6914 N.pl3     1 UNK        -0.9550
     10 C6         20.2911   10.5310   32.5018 C.ar      1 UNK        -0.8146
     11 C7         19.9686   11.9007   32.8839 C.1       1 UNK         0.5943
     12 N3         19.7198   12.9914   33.1811 N.1       1 UNK        -0.6048
     13 N4         21.4264    6.8283   31.0989 N.am      1 UNK        -0.5824
     14 C8         20.8492    5.6257   31.0244 C.2       1 UNK         0.6336
     15 O2         19.7218    5.3642   31.4396 O.2       1 UNK        -0.5879
     16 C9         21.6453    4.5492   30.2959 C.3       1 UNK        -0.3377
     17 C10        23.0487    4.3416   30.8592 C.ar      1 UNK         0.1206
     18 C11        24.1093    5.1752   30.4706 C.ar      1 UNK         0.1990
     19 O3         23.8251    6.2111   29.5994 O.3       1 UNK        -0.2409
     20 C12        24.7824    7.2540   29.4258 C.3       1 UNK        -0.1813
     21 C13        25.3879    4.9247   30.9874 C.ar      1 UNK        -0.2429
     22 C14        25.5914    3.9088   31.9220 C.ar      1 UNK        -0.1352
     23 S1         27.2334    3.6721   32.5672 S.o2      1 UNK         0.8345
     24 O4         27.2231    2.4429   33.3679 O.2       1 UNK        -0.5075
     25 O5         28.1772    3.8623   31.4603 O.2       1 UNK        -0.5301
     26 C15        27.4319    5.0423   33.6860 C.3       1 UNK        -0.4357
     27 C16        24.5221    3.1087   32.3472 C.ar      1 UNK         0.2886
     28 C17        23.2656    3.3183   31.7864 C.ar      1 UNK        -0.2975
     29 O6         24.6165    2.1143   33.2977 O.3       1 UNK        -0.3967
     30 C18        25.8225    1.9829   34.0425 C.3       1 UNK         0.0504
     31 H1         23.4201   13.1517   29.7829 H         1 UNK         0.1134
     32 H2         24.4313   12.7993   31.1825 H         1 UNK         0.1191
     33 H3         24.9321   12.2709   29.5744 H         1 UNK         0.0968
     34 H4         22.9929   10.6828   29.4751 H         1 UNK         0.0087
     35 H5         23.9949   10.3497   30.8913 H         1 UNK         0.0137
     36 H6         19.2718    7.3005   32.7652 H         1 UNK         0.2989
     37 H7         17.9995   10.4112   33.9502 H         1 UNK         0.4573
     38 H8         17.9030    8.6579   33.9746 H         1 UNK         0.4605
     39 H9         22.3314    6.8853   30.6516 H         1 UNK         0.3397
     40 H10        21.0931    3.6096   30.3416 H         1 UNK         0.1701
     41 H11        21.7057    4.8072   29.2382 H         1 UNK         0.1235
     42 H12        25.6789    6.8955   28.9178 H         1 UNK         0.1251
     43 H13        24.3494    8.0402   28.8073 H         1 UNK         0.1489
     44 H14        25.0654    7.7073   30.3780 H         1 UNK         0.1249
     45 H15        26.2369    5.5240   30.6973 H         1 UNK         0.1947
     46 H16        28.4193    4.9961   34.1454 H         1 UNK         0.1964
     47 H17        27.3304    5.9780   33.1361 H         1 UNK         0.1828
     48 H18        26.6676    4.9918   34.4615 H         1 UNK         0.1668
     49 H19        22.4432    2.6924   32.1024 H         1 UNK         0.1826
     50 H20        26.0724    2.9044   34.5706 H         1 UNK         0.0577
     51 H21        26.6593    1.6972   33.4036 H         1 UNK         0.0785
     52 H22        25.6996    1.2001   34.7908 H         1 UNK         0.0881
@<TRIPOS>BOND
     1    1    2 1    
     2    1   31 1    
     3    1   32 1    
     4    1   33 1    
     5    2    3 1    
     6    2   34 1    
     7    2   35 1    
     8    3    4 1    
     9    4   10 ar   
    10    4    5 ar   
    11    5    6 ar   
    12    6    7 ar   
    13    6   13 1    
    14    7    8 ar   
    15    7   36 1    
    16    8    9 1    
    17    8   10 ar   
    18    9   37 1    
    19    9   38 1    
    20   10   11 1    
    21   11   12 3    
    22   13   14 am   
    23   13   39 1    
    24   14   15 2    
    25   14   16 1    
    26   16   17 1    
    27   16   40 1    
    28   16   41 1    
    29   17   28 ar   
    30   17   18 ar   
    31   18   19 1    
    32   18   21 ar   
    33   19   20 1    
    34   20   42 1    
    35   20   43 1    
    36   20   44 1    
    37   21   22 ar   
    38   21   45 1    
    39   22   23 1    
    40   22   27 ar   
    41   23   24 2    
    42   23   25 2    
    43   23   26 1    
    44   26   46 1    
    45   26   47 1    
    46   26   48 1    
    47   27   28 ar   
    48   27   29 1    
    49   28   49 1    
    50   29   30 1    
    51   30   50 1    
    52   30   51 1    
    53   30   52 1    
@<TRIPOS>SUBSTRUCTURE
@<TRIPOS>MOLECULE
18639-1
48   49   0
SMALL
NO_CHARGES


@<TRIPOS>ATOM
      1 C1         24.0733   12.4028   30.2323 C.3       1 UNK        -0.4306
      2 C18        23.3271   11.0818   30.4341 C.3       1 UNK         0.3205
      3 O1         22.2086   11.3387   31.2785 O.3       1 UNK        -0.4457
      4 C2         21.4076   10.2889   31.6938 C.ar      1 UNK         0.7700
      5 N1         21.7457    9.0394   31.2730 N.ar      1 UNK        -0.7340
      6 C3         20.9690    8.0101   31.6444 C.ar      1 UNK         0.7069
      7 C4         19.8628    8.1544   32.4699 C.ar      1 UNK        -0.7169
      8 C5         19.5194    9.4254   32.8937 C.ar      1 UNK         0.7191
      9 N2         18.3843    9.5057   33.6914 N.pl3     1 UNK        -0.9301
     10 C6         20.2911   10.5310   32.5018 C.ar      1 UNK        -0.6999
     11 C7         19.9686   11.9007   32.8839 C.1       1 UNK         0.5600
     12 N3         19.7198   12.9914   33.1811 N.1       1 UNK        -0.5964
     13 N4         21.4264    6.8283   31.0989 N.am      1 UNK        -0.5079
     14 C8         20.8492    5.6257   31.0244 C.2       1 UNK         0.6208
     15 O2         19.7218    5.3642   31.4396 O.2       1 UNK        -0.5905
     16 C9         21.6453    4.5492   30.2959 C.3       1 UNK        -0.2714
     17 C10        23.0487    4.3416   30.8592 C.ar      1 UNK         0.0137
     18 C11        24.1093    5.1752   30.4706 C.ar      1 UNK         0.2916
     19 O3         23.8251    6.2111   29.5994 O.3       1 UNK        -0.2288
     20 C12        24.7824    7.2540   29.4258 C.3       1 UNK        -0.2622
     21 C13        25.3879    4.9247   30.9874 C.ar      1 UNK        -0.3919
     22 C14        25.5914    3.9088   31.9220 C.ar      1 UNK         0.0784
     23 N5         26.9264    3.6828   32.4684 N.pl3     1 UNK         0.5714
     24 O4         27.0552    3.8033   33.6806 O.co2     1 UNK        -0.3866
     25 O5         27.8083    3.3913   31.6697 O.co2     1 UNK        -0.4138
     26 C15        24.5221    3.1087   32.3472 C.ar      1 UNK         0.1816
     27 C16        23.2656    3.3183   31.7864 C.ar      1 UNK        -0.1777
     28 O6         24.6165    2.1143   33.2977 O.3       1 UNK        -0.3625
     29 C17        25.8225    1.9829   34.0425 C.3       1 UNK        -0.0430
     30 H1         24.9321   12.2709   29.5744 H         1 UNK         0.1146
     31 H2         23.4201   13.1517   29.7829 H         1 UNK         0.1314
     32 H3         24.4313   12.7993   31.1825 H         1 UNK         0.1280
     33 H4         22.9931   10.7020   29.4686 H         1 UNK         0.0326
     34 H5         23.9936   10.3555   30.8993 H         1 UNK         0.0489
     35 H6         19.2641    7.3082   32.7619 H         1 UNK         0.2784
     36 H7         17.9995   10.4112   33.9502 H         1 UNK         0.4535
     37 H8         17.9030    8.6579   33.9746 H         1 UNK         0.4542
     38 H9         22.3253    6.9397   30.6579 H         1 UNK         0.2832
     39 H10        21.1010    3.6087   30.3001 H         1 UNK         0.1359
     40 H11        21.7083    4.8657   29.2593 H         1 UNK         0.1205
     41 H12        24.3494    8.0402   28.8073 H         1 UNK         0.1680
     42 H13        25.0654    7.7073   30.3780 H         1 UNK         0.1340
     43 H14        25.6789    6.8955   28.9178 H         1 UNK         0.1612
     44 H15        26.2165    5.5393   30.6717 H         1 UNK         0.2380
     45 H16        22.4351    2.6894   32.0648 H         1 UNK         0.1722
     46 H17        25.6996    1.2001   34.7908 H         1 UNK         0.1193
     47 H18        26.6593    1.6972   33.4036 H         1 UNK         0.0869
     48 H19        26.0724    2.9044   34.5706 H         1 UNK         0.0948
@<TRIPOS>BOND
     1    1    2 1    
     2    1   30 1    
     3    1   31 1    
     4    1   32 1    
     5    2    3 1    
     6    2   33 1    
     7    2   34 1    
     8    3    4 1    
     9    4   10 ar   
    10    4    5 ar   
    11    5    6 ar   
    12    6    7 ar   
    13    6   13 1    
    14    7    8 ar   
    15    7   35 1    
    16    8    9 1    
    17    8   10 ar   
    18    9   36 1    
    19    9   37 1    
    20   10   11 1    
    21   11   12 3    
    22   13   14 am   
    23   13   38 1    
    24   14   15 2    
    25   14   16 1    
    26   16   17 1    
    27   16   39 1    
    28   16   40 1    
    29   17   27 ar   
    30   17   18 ar   
    31   18   19 1    
    32   18   21 ar   
    33   19   20 1    
    34   20   41 1    
    35   20   42 1    
    36   20   43 1    
    37   21   22 ar   
    38   21   44 1    
    39   22   23 1    
    40   22   26 ar   
    41   23   24 1    
    42   23   25 2    
    43   26   27 ar   
    44   26   28 1    
    45   27   45 1    
    46   28   29 1    
    47   29   46 1    
    48   29   47 1    
    49   29   48 1    
@<TRIPOS>SUBSTRUCTURE
@<TRIPOS>MOLECULE
18652-1
55   56   0
SMALL
NO_CHARGES


@<TRIPOS>ATOM
      1 C1         22.8677   10.5331   29.1158 C.3       1 UNK        -0.4666
      2 C20        23.3271   11.0818   30.4341 C.3       1 UNK         0.5372
      3 C2         24.0733   12.4028   30.2323 C.3       1 UNK        -0.4816
      4 O1         22.2086   11.3387   31.2785 O.3       1 UNK        -0.4796
      5 C3         21.4076   10.2889   31.6938 C.ar      1 UNK         0.7857
      6 N1         21.7457    9.0394   31.2730 N.ar      1 UNK        -0.7226
      7 C4         20.9690    8.0101   31.6444 C.ar      1 UNK         0.7012
      8 C5         19.8628    8.1544   32.4699 C.ar      1 UNK        -0.6948
      9 C6         19.5194    9.4254   32.8937 C.ar      1 UNK         0.7020
     10 N2         18.3843    9.5057   33.6914 N.pl3     1 UNK        -0.9296
     11 C7         20.2911   10.5310   32.5018 C.ar      1 UNK        -0.7093
     12 C8         19.9686   11.9007   32.8839 C.1       1 UNK         0.5712
     13 N3         19.7198   12.9914   33.1811 N.1       1 UNK        -0.5998
     14 N4         21.4264    6.8283   31.0989 N.am      1 UNK        -0.5691
     15 C9         20.8492    5.6257   31.0244 C.2       1 UNK         0.6424
     16 O2         19.7218    5.3642   31.4396 O.2       1 UNK        -0.5873
     17 C10        21.6453    4.5492   30.2959 C.3       1 UNK        -0.3819
     18 C11        23.0487    4.3416   30.8592 C.ar      1 UNK         0.1328
     19 C12        24.1093    5.1752   30.4706 C.ar      1 UNK         0.1815
     20 O3         23.8251    6.2111   29.5994 O.3       1 UNK        -0.2352
     21 C13        24.7824    7.2540   29.4258 C.3       1 UNK        -0.2136
     22 C14        25.3879    4.9247   30.9874 C.ar      1 UNK        -0.2208
     23 C15        25.5914    3.9088   31.9220 C.ar      1 UNK        -0.1424
     24 S1         27.2334    3.6723   32.5674 S.o2      1 UNK         0.8345
     25 O4         27.2231    2.4432   33.3682 O.2       1 UNK        -0.5092
     26 O5         28.1772    3.8624   31.4605 O.2       1 UNK        -0.5305
     27 C16        27.4317    5.0427   33.6860 C.3       1 UNK        -0.3870
     28 C17        24.5221    3.1087   32.3472 C.ar      1 UNK         0.2784
     29 C18        23.2656    3.3183   31.7864 C.ar      1 UNK        -0.2807
     30 O6         24.6165    2.1143   33.2977 O.3       1 UNK        -0.3899
     31 C19        25.8225    1.9829   34.0425 C.3       1 UNK         0.0280
     32 H1         23.7326   10.3415   28.4807 H         1 UNK         0.1295
     33 H2         22.3236    9.6029   29.2792 H         1 UNK         0.1007
     34 H3         22.2130   11.2563   28.6295 H         1 UNK         0.1375
     35 H4         23.9950   10.3498   30.8914 H         1 UNK        -0.0018
     36 H5         24.4313   12.7993   31.1825 H         1 UNK         0.1250
     37 H6         24.9321   12.2709   29.5744 H         1 UNK         0.1266
     38 H7         23.4201   13.1517   29.7829 H         1 UNK         0.1420
     39 H8         19.2716    7.3006   32.7650 H         1 UNK         0.2732
     40 H9         17.9030    8.6579   33.9746 H         1 UNK         0.4558
     41 H10        17.9995   10.4112   33.9502 H         1 UNK         0.4510
     42 H11        22.3313    6.8854   30.6515 H         1 UNK         0.3412
     43 H12        21.0931    3.6096   30.3418 H         1 UNK         0.1812
     44 H13        21.7056    4.8070   29.2381 H         1 UNK         0.1383
     45 H14        25.6789    6.8955   28.9178 H         1 UNK         0.1327
     46 H15        24.3494    8.0402   28.8073 H         1 UNK         0.1592
     47 H16        25.0654    7.7073   30.3780 H         1 UNK         0.1368
     48 H17        26.2370    5.5239   30.6972 H         1 UNK         0.1942
     49 H18        28.4190    4.9966   34.1455 H         1 UNK         0.1916
     50 H19        27.3302    5.9783   33.1360 H         1 UNK         0.1508
     51 H20        26.6673    4.9923   34.4614 H         1 UNK         0.1461
     52 H21        22.4431    2.6924   32.1025 H         1 UNK         0.1770
     53 H22        26.0724    2.9044   34.5706 H         1 UNK         0.0741
     54 H23        25.6996    1.2001   34.7908 H         1 UNK         0.0949
     55 H24        26.6593    1.6972   33.4036 H         1 UNK         0.0790
@<TRIPOS>BOND
     1    1    2 1    
     2    1   32 1    
     3    1   33 1    
     4    1   34 1    
     5    2    3 1    
     6    2    4 1    
     7    2   35 1    
     8    3   36 1    
     9    3   37 1    
    10    3   38 1    
    11    4    5 1    
    12    5   11 ar   
    13    5    6 ar   
    14    6    7 ar   
    15    7    8 ar   
    16    7   14 1    
    17    8    9 ar   
    18    8   39 1    
    19    9   10 1    
    20    9   11 ar   
    21   10   40 1    
    22   10   41 1    
    23   11   12 1    
    24   12   13 3    
    25   14   15 am   
    26   14   42 1    
    27   15   16 2    
    28   15   17 1    
    29   17   18 1    
    30   17   43 1    
    31   17   44 1    
    32   18   29 ar   
    33   18   19 ar   
    34   19   20 1    
    35   19   22 ar   
    36   20   21 1    
    37   21   45 1    
    38   21   46 1    
    39   21   47 1    
    40   22   23 ar   
    41   22   48 1    
    42   23   24 1    
    43   23   28 ar   
    44   24   25 2    
    45   24   26 2    
    46   24   27 1    
    47   27   49 1    
    48   27   50 1    
    49   27   51 1    
    50   28   29 ar   
    51   28   30 1    
    52   29   52 1    
    53   30   31 1    
    54   31   53 1    
    55   31   54 1    
    56   31   55 1    
@<TRIPOS>SUBSTRUCTURE
@<TRIPOS>MOLECULE
18658-1
47   48   0
SMALL
NO_CHARGES


@<TRIPOS>ATOM
      1 O1         25.1668   12.1935   29.4169 O.3       1 UNK        -0.7282
      2 C1         24.0733   12.4028   30.2323 C.3       1 UNK         0.0852
      3 C2         23.3271   11.0818   30.4341 C.3       1 UNK         0.3319
      4 O5         22.2086   11.3387   31.2785 O.3       1 UNK        -0.5245
      5 C3         21.4076   10.2889   31.6938 C.ar      1 UNK         0.8218
      6 N1         21.7457    9.0394   31.2730 N.ar      1 UNK        -0.7708
      7 C4         20.9690    8.0101   31.6444 C.ar      1 UNK         0.7576
      8 C5         19.8628    8.1544   32.4699 C.ar      1 UNK        -0.7264
      9 C6         19.5194    9.4254   32.8937 C.ar      1 UNK         0.7093
     10 N2         18.3843    9.5057   33.6914 N.pl3     1 UNK        -0.9194
     11 C7         20.2911   10.5310   32.5018 C.ar      1 UNK        -0.7221
     12 C8         19.9686   11.9007   32.8839 C.1       1 UNK         0.5843
     13 N3         19.7198   12.9914   33.1811 N.1       1 UNK        -0.6018
     14 N4         21.4264    6.8283   31.0989 N.am      1 UNK        -0.6029
     15 C9         20.8492    5.6257   31.0244 C.2       1 UNK         0.6820
     16 O2         19.7218    5.3642   31.4396 O.2       1 UNK        -0.6075
     17 C10        21.6453    4.5492   30.2959 C.3       1 UNK        -0.3214
     18 C11        23.0487    4.3416   30.8592 C.ar      1 UNK         0.1506
     19 C12        24.1093    5.1752   30.4706 C.ar      1 UNK         0.1573
     20 O3         23.8251    6.2111   29.5994 O.3       1 UNK        -0.2802
     21 C13        24.7824    7.2540   29.4258 C.3       1 UNK        -0.1534
     22 C14        25.3879    4.9247   30.9874 C.ar      1 UNK        -0.2256
     23 C15        25.5914    3.9088   31.9220 C.ar      1 UNK        -0.3121
     24 C16        24.5221    3.1087   32.3472 C.ar      1 UNK         0.4303
     25 C17        23.2656    3.3183   31.7864 C.ar      1 UNK        -0.4388
     26 O4         24.6165    2.1143   33.2977 O.3       1 UNK        -0.4084
     27 C18        25.8225    1.9829   34.0425 C.3       1 UNK        -0.0101
     28 H1         25.7164   13.0077   29.2298 H         1 UNK         0.4744
     29 H2         24.4073   12.7826   31.1978 H         1 UNK         0.0592
     30 H3         23.4068   13.1291   29.7670 H         1 UNK         0.0650
     31 H4         22.9931   10.7020   29.4686 H         1 UNK         0.0395
     32 H5         23.9936   10.3555   30.8993 H         1 UNK         0.0509
     33 H6         19.2674    7.3067   32.7646 H         1 UNK         0.2809
     34 H7         17.9995   10.4112   33.9502 H         1 UNK         0.4485
     35 H8         17.9030    8.6579   33.9746 H         1 UNK         0.4534
     36 H9         22.3330    6.9305   30.6684 H         1 UNK         0.3355
     37 H10        21.0994    3.6097   30.2956 H         1 UNK         0.1320
     38 H11        21.7123    4.8699   29.2610 H         1 UNK         0.1132
     39 H12        24.3494    8.0402   28.8073 H         1 UNK         0.1404
     40 H13        25.0654    7.7073   30.3780 H         1 UNK         0.0913
     41 H14        25.6789    6.8955   28.9178 H         1 UNK         0.1292
     42 H15        26.2372    5.5163   30.6817 H         1 UNK         0.1876
     43 H16        26.5801    3.7280   32.3186 H         1 UNK         0.1825
     44 H17        22.4430    2.6802   32.0685 H         1 UNK         0.2000
     45 H18        25.6996    1.2001   34.7908 H         1 UNK         0.1074
     46 H19        26.6593    1.6972   33.4036 H         1 UNK         0.0762
     47 H20        26.0724    2.9044   34.5706 H         1 UNK         0.0762
@<TRIPOS>BOND
     1    1    2 1    
     2    1   28 1    
     3    2    3 1    
     4    2   29 1    
     5    2   30 1    
     6    3    4 1    
     7    3   31 1    
     8    3   32 1    
     9    4    5 1    
    10    5   11 ar   
    11    5    6 ar   
    12    6    7 ar   
    13    7    8 ar   
    14    7   14 1    
    15    8    9 ar   
    16    8   33 1    
    17    9   10 1    
    18    9   11 ar   
    19   10   34 1    
    20   10   35 1    
    21   11   12 1    
    22   12   13 3    
    23   14   15 am   
    24   14   36 1    
    25   15   16 2    
    26   15   17 1    
    27   17   18 1    
    28   17   37 1    
    29   17   38 1    
    30   18   25 ar   
    31   18   19 ar   
    32   19   20 1    
    33   19   22 ar   
    34   20   21 1    
    35   21   39 1    
    36   21   40 1    
    37   21   41 1    
    38   22   23 ar   
    39   22   42 1    
    40   23   24 ar   
    41   23   43 1    
    42   24   25 ar   
    43   24   26 1    
    44   25   44 1    
    45   26   27 1    
    46   27   45 1    
    47   27   46 1    
    48   27   47 1    
@<TRIPOS>SUBSTRUCTURE
@<TRIPOS>MOLECULE
18659-1
50   51   0
SMALL
NO_CHARGES


@<TRIPOS>ATOM
      1 C1         25.9253   13.3171   29.1587 C.3       1 UNK        -0.0091
      2 O1         25.1668   12.1935   29.4169 O.3       1 UNK        -0.4582
      3 C19        24.0733   12.4028   30.2323 C.3       1 UNK         0.0793
      4 C2         23.3271   11.0818   30.4341 C.3       1 UNK         0.1806
      5 O2         22.2086   11.3387   31.2785 O.3       1 UNK        -0.4928
      6 C3         21.4076   10.2889   31.6938 C.ar      1 UNK         0.8275
      7 N1         21.7457    9.0394   31.2730 N.ar      1 UNK        -0.7415
      8 C4         20.9690    8.0101   31.6444 C.ar      1 UNK         0.7263
      9 C5         19.8628    8.1544   32.4699 C.ar      1 UNK        -0.7203
     10 C6         19.5194    9.4254   32.8937 C.ar      1 UNK         0.7195
     11 N2         18.3843    9.5057   33.6914 N.pl3     1 UNK        -0.9238
     12 C7         20.2911   10.5310   32.5018 C.ar      1 UNK        -0.7326
     13 C8         19.9686   11.9007   32.8839 C.1       1 UNK         0.5839
     14 N3         19.7198   12.9914   33.1811 N.1       1 UNK        -0.6034
     15 N4         21.4264    6.8283   31.0989 N.am      1 UNK        -0.6042
     16 C9         20.8492    5.6257   31.0244 C.2       1 UNK         0.6911
     17 O3         19.7218    5.3642   31.4396 O.2       1 UNK        -0.6079
     18 C10        21.6453    4.5492   30.2959 C.3       1 UNK        -0.3343
     19 C11        23.0487    4.3416   30.8592 C.ar      1 UNK         0.1610
     20 C12        24.1093    5.1752   30.4706 C.ar      1 UNK         0.1680
     21 O4         23.8251    6.2111   29.5994 O.3       1 UNK        -0.3115
     22 C13        24.7824    7.2540   29.4258 C.3       1 UNK        -0.0760
     23 C14        25.3879    4.9247   30.9874 C.ar      1 UNK        -0.2340
     24 C15        25.5914    3.9088   31.9220 C.ar      1 UNK        -0.3132
     25 C16        24.5221    3.1087   32.3472 C.ar      1 UNK         0.4337
     26 C17        23.2656    3.3183   31.7864 C.ar      1 UNK        -0.4478
     27 O5         24.6165    2.1143   33.2977 O.3       1 UNK        -0.4087
     28 C18        25.8225    1.9829   34.0425 C.3       1 UNK        -0.0119
     29 H1         26.7601   13.0508   28.5104 H         1 UNK         0.0984
     30 H2         25.3071   14.0672   28.6654 H         1 UNK         0.0656
     31 H3         26.3076   13.7207   30.0962 H         1 UNK         0.0668
     32 H4         24.4073   12.7825   31.1978 H         1 UNK         0.0765
     33 H5         23.4068   13.1291   29.7670 H         1 UNK         0.0870
     34 H6         22.9931   10.7020   29.4686 H         1 UNK         0.0706
     35 H7         23.9936   10.3555   30.8993 H         1 UNK         0.0869
     36 H8         19.2654    7.3087   32.7651 H         1 UNK         0.2804
     37 H9         17.9995   10.4112   33.9502 H         1 UNK         0.4520
     38 H10        17.9030    8.6579   33.9746 H         1 UNK         0.4530
     39 H11        22.3314    6.9314   30.6661 H         1 UNK         0.3460
     40 H12        21.0994    3.6092   30.2965 H         1 UNK         0.1334
     41 H13        21.7117    4.8685   29.2602 H         1 UNK         0.1165
     42 H14        24.3494    8.0402   28.8073 H         1 UNK         0.1282
     43 H15        25.6789    6.8955   28.9178 H         1 UNK         0.1137
     44 H16        25.0654    7.7073   30.3780 H         1 UNK         0.0424
     45 H17        26.2367    5.5175   30.6828 H         1 UNK         0.1961
     46 H18        26.5798    3.7292   32.3198 H         1 UNK         0.1821
     47 H19        22.4427    2.6809   32.0695 H         1 UNK         0.2025
     48 H20        25.6996    1.2001   34.7908 H         1 UNK         0.1074
     49 H21        26.6593    1.6972   33.4036 H         1 UNK         0.0765
     50 H22        26.0724    2.9044   34.5706 H         1 UNK         0.0784
@<TRIPOS>BOND
     1    1    2 1    
     2    1   29 1    
     3    1   30 1    
     4    1   31 1    
     5    2    3 1    
     6    3    4 1    
     7    3   32 1    
     8    3   33 1    
     9    4    5 1    
    10    4   34 1    
    11    4   35 1    
    12    5    6 1    
    13    6   12 ar   
    14    6    7 ar   
    15    7    8 ar   
    16    8    9 ar   
    17    8   15 1    
    18    9   10 ar   
    19    9   36 1    
    20   10   11 1    
    21   10   12 ar   
    22   11   37 1    
    23   11   38 1    
    24   12   13 1    
    25   13   14 3    
    26   15   16 am   
    27   15   39 1    
    28   16   17 2    
    29   16   18 1    
    30   18   19 1    
    31   18   40 1    
    32   18   41 1    
    33   19   26 ar   
    34   19   20 ar   
    35   20   21 1    
    36   20   23 ar   
    37   21   22 1    
    38   22   42 1    
    39   22   43 1    
    40   22   44 1    
    41   23   24 ar   
    42   23   45 1    
    43   24   25 ar   
    44   24   46 1    
    45   25   26 ar   
    46   25   27 1    
    47   26   47 1    
    48   27   28 1    
    49   28   48 1    
    50   28   49 1    
    51   28   50 1    
@<TRIPOS>SUBSTRUCTURE
@<TRIPOS>MOLECULE
18660-1
52   53   0
SMALL
NO_CHARGES


@<TRIPOS>ATOM
      1 C1         25.1546   13.2672   27.8100 C.3       1 UNK        -0.4552
      2 S1         25.4909   12.1804   29.1790 S.o2      1 UNK         0.8185
      3 O1         25.4562   10.8041   28.6723 O.2       1 UNK        -0.4016
      4 O2         26.6597   12.7101   29.8898 O.2       1 UNK        -0.4891
      5 C19        24.0733   12.4028   30.2323 C.3       1 UNK        -0.3807
      6 C2         23.3271   11.0818   30.4341 C.3       1 UNK         0.3795
      7 O3         22.2086   11.3387   31.2785 O.3       1 UNK        -0.4928
      8 C3         21.4076   10.2889   31.6938 C.ar      1 UNK         0.7260
      9 N1         21.7457    9.0394   31.2730 N.ar      1 UNK        -0.5962
     10 C4         20.9690    8.0101   31.6444 C.ar      1 UNK         0.5967
     11 C5         19.8628    8.1544   32.4699 C.ar      1 UNK        -0.6828
     12 C6         19.5194    9.4254   32.8937 C.ar      1 UNK         0.6975
     13 N2         18.3843    9.5057   33.6914 N.pl3     1 UNK        -0.9277
     14 C7         20.2911   10.5310   32.5018 C.ar      1 UNK        -0.6578
     15 C8         19.9686   11.9007   32.8839 C.1       1 UNK         0.5525
     16 N3         19.7198   12.9914   33.1811 N.1       1 UNK        -0.5906
     17 N4         21.4264    6.8283   31.0989 N.am      1 UNK        -0.5433
     18 C9         20.8492    5.6257   31.0244 C.2       1 UNK         0.7437
     19 O4         19.7218    5.3642   31.4396 O.2       1 UNK        -0.6403
     20 C10        21.6453    4.5492   30.2959 C.3       1 UNK        -0.4192
     21 C11        23.0487    4.3416   30.8592 C.ar      1 UNK         0.2094
     22 C12        24.1093    5.1752   30.4706 C.ar      1 UNK         0.1507
     23 O5         23.8251    6.2111   29.5994 O.3       1 UNK        -0.3461
     24 C13        24.7824    7.2540   29.4258 C.3       1 UNK        -0.0257
     25 C14        25.3879    4.9247   30.9874 C.ar      1 UNK        -0.2217
     26 C15        25.5914    3.9088   31.9220 C.ar      1 UNK        -0.3337
     27 C16        24.5221    3.1087   32.3472 C.ar      1 UNK         0.4601
     28 C17        23.2656    3.3183   31.7864 C.ar      1 UNK        -0.4925
     29 O6         24.6165    2.1143   33.2977 O.3       1 UNK        -0.4446
     30 C18        25.8225    1.9829   34.0425 C.3       1 UNK         0.0687
     31 H1         25.9721   13.2101   27.0914 H         1 UNK         0.1967
     32 H2         24.2247   12.9665   27.3273 H         1 UNK         0.1712
     33 H3         25.0609   14.2907   28.1731 H         1 UNK         0.1860
     34 H4         24.4219   12.8041   31.1841 H         1 UNK         0.1794
     35 H5         23.4267   13.1497   29.7711 H         1 UNK         0.1717
     36 H6         22.9930   10.6827   29.4751 H         1 UNK         0.0629
     37 H7         23.9951   10.3499   30.8914 H         1 UNK        -0.0199
     38 H8         19.2719    7.3005   32.7654 H         1 UNK         0.2805
     39 H9         17.9030    8.6579   33.9746 H         1 UNK         0.4532
     40 H10        17.9995   10.4112   33.9502 H         1 UNK         0.4533
     41 H11        22.3314    6.8854   30.6516 H         1 UNK         0.3341
     42 H12        21.0931    3.6096   30.3416 H         1 UNK         0.1481
     43 H13        21.7056    4.8072   29.2382 H         1 UNK         0.1278
     44 H14        24.3494    8.0402   28.8073 H         1 UNK         0.1039
     45 H15        25.0654    7.7073   30.3780 H         1 UNK         0.0561
     46 H16        25.6789    6.8955   28.9178 H         1 UNK         0.0766
     47 H17        26.2370    5.5239   30.6972 H         1 UNK         0.1837
     48 H18        26.5867    3.7655   32.3133 H         1 UNK         0.1953
     49 H19        22.4431    2.6924   32.1024 H         1 UNK         0.2005
     50 H20        26.0724    2.9044   34.5706 H         1 UNK         0.0429
     51 H21        25.6996    1.2001   34.7908 H         1 UNK         0.0852
     52 H22        26.6593    1.6972   33.4036 H         1 UNK         0.0491
@<TRIPOS>BOND
     1    1    2 1    
     2    1   31 1    
     3    1   32 1    
     4    1   33 1    
     5    2    3 2    
     6    2    4 2    
     7    2    5 1    
     8    5    6 1    
     9    5   34 1    
    10    5   35 1    
    11    6    7 1    
    12    6   36 1    
    13    6   37 1    
    14    7    8 1    
    15    8   14 ar   
    16    8    9 ar   
    17    9   10 ar   
    18   10   11 ar   
    19   10   17 1    
    20   11   12 ar   
    21   11   38 1    
    22   12   13 1    
    23   12   14 ar   
    24   13   39 1    
    25   13   40 1    
    26   14   15 1    
    27   15   16 3    
    28   17   18 am   
    29   17   41 1    
    30   18   19 2    
    31   18   20 1    
    32   20   21 1    
    33   20   42 1    
    34   20   43 1    
    35   21   28 ar   
    36   21   22 ar   
    37   22   23 1    
    38   22   25 ar   
    39   23   24 1    
    40   24   44 1    
    41   24   45 1    
    42   24   46 1    
    43   25   26 ar   
    44   25   47 1    
    45   26   27 ar   
    46   26   48 1    
    47   27   28 ar   
    48   27   29 1    
    49   28   49 1    
    50   29   30 1    
    51   30   50 1    
    52   30   51 1    
    53   30   52 1    
@<TRIPOS>SUBSTRUCTURE
