@<TRIPOS>MOLECULE
20667
60   63   0
SMALL
NO_CHARGES


@<TRIPOS>ATOM
      1 O1         41.2756   17.6314   11.7392 O.co2     1 UNK        -0.8084
      2 C2         40.5209   17.5798   12.7363 C.2       1 UNK         0.7876
      3 O3         39.5112   18.2966   12.9137 O.co2     1 UNK        -0.8566
      4 C4         40.8718   16.5948   13.8531 C.3       1 UNK         0.0682
      5 O5         42.1284   15.9801   13.6057 O.3       1 UNK        -0.5263
      6 C6         42.5067   15.0961   14.5535 C.2       1 UNK         0.5696
      7 C7         42.1050   13.7638   14.6029 C.2       1 UNK        -0.2445
      8 Br8        41.0604   12.9703   13.2195 Br        1 UNK        -0.0592
      9 C9         42.4736   13.0428   15.7309 C.2       1 UNK        -0.0014
     10 C10        42.1345   11.6814   16.1187 C.ar      1 UNK         0.2615
     11 C11        43.0991   10.8232   16.6550 C.ar      1 UNK        -0.2365
     12 C12        42.7730    9.5138   17.0059 C.ar      1 UNK        -0.1211
     13 C13        41.4767    9.0403   16.8075 C.ar      1 UNK        -0.3194
     14 C14        40.4943    9.8795   16.2662 C.ar      1 UNK         0.5049
     15 N15        39.1733    9.4611   16.0229 N.pl3     1 UNK        -0.8027
     16 C16        38.8803    8.0706   15.6816 C.3       1 UNK         0.4066
     17 C17        37.3499    7.8627   15.5714 C.3       1 UNK        -0.3138
     18 C18        36.9746    6.4537   15.0726 C.3       1 UNK         0.0481
     19 N19        37.7104    6.1236   13.8434 N.pl3     1 UNK        -0.3018
     20 S20        36.9761    5.2050   12.5892 S.o2      1 UNK         0.7914
     21 O21        37.8364    5.3259   11.4042 O.2       1 UNK        -0.5065
     22 O22        35.5548    5.5863   12.5166 O.2       1 UNK        -0.5010
     23 C23        37.1037    3.4728   13.2183 C.3       1 UNK        -0.3066
     24 C24        36.7137    2.5266   12.0998 C.ar      1 UNK         0.1971
     25 C25        35.3715    2.1867   11.9063 C.ar      1 UNK        -0.2075
     26 C26        35.0075    1.3509   10.8514 C.ar      1 UNK        -0.1072
     27 C27        35.9839    0.8540    9.9894 C.ar      1 UNK        -0.1369
     28 C28        37.3260    1.1810   10.1830 C.ar      1 UNK        -0.1124
     29 C29        37.6914    2.0147   11.2396 C.ar      1 UNK        -0.2037
     30 C30        39.1749    6.2318   13.9220 C.3       1 UNK        -0.0392
     31 C31        39.5890    7.6410   14.3716 C.3       1 UNK        -0.2074
     32 C32        40.8302   11.1974   15.9487 C.ar      1 UNK        -0.5045
     33 S33        43.4983   14.0501   16.7177 S.3       1 UNK        -0.0394
     34 C34        43.3217   15.4163   15.6304 C.2       1 UNK        -0.3475
     35 C35        44.0307   16.6631   16.0010 C.2       1 UNK         0.7857
     36 O36        44.7160   16.6749   17.0464 O.co2     1 UNK        -0.7811
     37 O37        43.9282   17.6692   15.2634 O.co2     1 UNK        -0.7663
     38 H38        40.0886   15.8379   13.9235 H         1 UNK         0.0346
     39 H39        40.8969   17.1346   14.8012 H         1 UNK         0.0735
     40 H40        44.1104   11.1712   16.8083 H         1 UNK         0.1184
     41 H41        43.5244    8.8661   17.4327 H         1 UNK         0.1510
     42 H42        41.2432    8.0198   17.0746 H         1 UNK         0.1559
     43 H43        38.4441   10.1521   16.1264 H         1 UNK         0.4113
     44 H44        39.2589    7.4686   16.5076 H         1 UNK         0.0538
     45 H45        36.8766    8.0462   16.5360 H         1 UNK         0.1058
     46 H46        36.9348    8.6028   14.8873 H         1 UNK         0.1178
     47 H47        37.2043    5.6975   15.8233 H         1 UNK         0.0618
     48 H48        35.9002    6.3859   14.9017 H         1 UNK         0.1067
     49 H49        38.1271    3.3079   13.5550 H         1 UNK         0.1487
     50 H50        36.4608    3.3486   14.0877 H         1 UNK         0.1523
     51 H51        34.6091    2.5781   12.5626 H         1 UNK         0.1468
     52 H52        33.9697    1.0939   10.6989 H         1 UNK         0.1289
     53 H53        35.7040    0.2213    9.1599 H         1 UNK         0.1307
     54 H54        38.0756    0.8016    9.5040 H         1 UNK         0.1310
     55 H55        38.7321    2.2645   11.3849 H         1 UNK         0.1420
     56 H56        39.5253    5.4655   14.6134 H         1 UNK         0.0829
     57 H57        39.6129    5.9826   12.9555 H         1 UNK         0.1281
     58 H58        39.3499    8.3541   13.5828 H         1 UNK         0.1009
     59 H59        40.6706    7.6852   14.4991 H         1 UNK         0.0577
     60 H60        40.0955   11.8787   15.5559 H         1 UNK         0.1970
@<TRIPOS>BOND
     1    1    2 2    
     2    2    3 1    
     3    2    4 1    
     4    4    5 1    
     5    4   38 1    
     6    4   39 1    
     7    5    6 1    
     8    6   34 2    
     9    6    7 1    
    10    7    8 1    
    11    7    9 2    
    12    9   10 1    
    13    9   33 1    
    14   10   32 ar   
    15   10   11 ar   
    16   11   12 ar   
    17   11   40 1    
    18   12   13 ar   
    19   12   41 1    
    20   13   14 ar   
    21   13   42 1    
    22   14   15 1    
    23   14   32 ar   
    24   15   16 1    
    25   15   43 1    
    26   16   31 1    
    27   16   17 1    
    28   16   44 1    
    29   17   18 1    
    30   17   45 1    
    31   17   46 1    
    32   18   19 1    
    33   18   47 1    
    34   18   48 1    
    35   19   20 1    
    36   19   30 1    
    37   20   21 2    
    38   20   22 2    
    39   20   23 1    
    40   23   24 1    
    41   23   49 1    
    42   23   50 1    
    43   24   29 ar   
    44   24   25 ar   
    45   25   26 ar   
    46   25   51 1    
    47   26   27 ar   
    48   26   52 1    
    49   27   28 ar   
    50   27   53 1    
    51   28   29 ar   
    52   28   54 1    
    53   29   55 1    
    54   30   31 1    
    55   30   56 1    
    56   30   57 1    
    57   31   58 1    
    58   31   59 1    
    59   32   60 1    
    60   33   34 1    
    61   34   35 1    
    62   35   36 2    
    63   35   37 1    
@<TRIPOS>SUBSTRUCTURE
@<TRIPOS>MOLECULE
20669
42   44   0
SMALL
NO_CHARGES


@<TRIPOS>ATOM
      1 O1         41.2756   17.6314   11.7392 O.co2     1 UNK        -0.8069
      2 C2         40.5209   17.5798   12.7363 C.2       1 UNK         0.7857
      3 O3         39.5112   18.2966   12.9137 O.co2     1 UNK        -0.8571
      4 C4         40.8718   16.5948   13.8531 C.3       1 UNK         0.0711
      5 O5         42.1284   15.9801   13.6057 O.3       1 UNK        -0.5244
      6 C6         42.5067   15.0961   14.5535 C.2       1 UNK         0.5207
      7 C7         42.1050   13.7638   14.6029 C.2       1 UNK        -0.2093
      8 Br8        41.0604   12.9703   13.2195 Br        1 UNK        -0.0593
      9 C9         42.4736   13.0428   15.7309 C.2       1 UNK        -0.0201
     10 C10        42.1345   11.6814   16.1187 C.ar      1 UNK         0.2086
     11 C11        43.0991   10.8232   16.6550 C.ar      1 UNK        -0.1780
     12 C12        42.7730    9.5138   17.0059 C.ar      1 UNK        -0.1954
     13 C13        41.4767    9.0403   16.8075 C.ar      1 UNK        -0.1749
     14 C14        40.4943    9.8795   16.2662 C.ar      1 UNK         0.2815
     15 N15        39.1733    9.4611   16.0229 N.pl3     1 UNK        -0.4494
     16 C16        38.7860    8.1374   16.5019 C.3       1 UNK        -0.1676
     17 C17        38.3537    7.2922   15.3405 C.ar      1 UNK         0.1837
     18 C18        39.2419    7.0279   14.3047 C.ar      1 UNK        -0.1618
     19 C19        38.8414    6.2447   13.2287 C.ar      1 UNK        -0.1483
     20 C20        37.5526    5.7259   13.1884 C.ar      1 UNK        -0.1482
     21 C21        36.6645    5.9902   14.2242 C.ar      1 UNK        -0.1077
     22 C22        37.0650    6.7734   15.3003 C.ar      1 UNK        -0.2150
     23 C23        40.8302   11.1974   15.9487 C.ar      1 UNK        -0.4140
     24 S24        43.4983   14.0501   16.7177 S.3       1 UNK        -0.0321
     25 C25        43.3217   15.4163   15.6304 C.2       1 UNK        -0.3127
     26 C26        44.0307   16.6631   16.0010 C.2       1 UNK         0.7699
     27 O27        44.7160   16.6749   17.0464 O.co2     1 UNK        -0.7829
     28 O28        43.9282   17.6692   15.2634 O.co2     1 UNK        -0.7629
     29 H29        40.0886   15.8379   13.9235 H         1 UNK         0.0375
     30 H30        40.8969   17.1346   14.8012 H         1 UNK         0.0694
     31 H31        44.1104   11.1712   16.8083 H         1 UNK         0.1048
     32 H32        43.5244    8.8661   17.4327 H         1 UNK         0.1582
     33 H33        41.2432    8.0198   17.0746 H         1 UNK         0.1220
     34 H34        38.4441   10.1521   16.1264 H         1 UNK         0.3653
     35 H35        39.6356    7.6673   16.9971 H         1 UNK         0.1093
     36 H36        37.9614    8.2335   17.2082 H         1 UNK         0.1325
     37 H37        40.2453    7.4318   14.3361 H         1 UNK         0.1150
     38 H38        39.5329    6.0389   12.4223 H         1 UNK         0.1367
     39 H39        37.2408    5.1162   12.3507 H         1 UNK         0.1285
     40 H40        35.6611    5.5863   14.1929 H         1 UNK         0.1264
     41 H41        36.3735    6.9792   16.1067 H         1 UNK         0.1287
     42 H42        40.0955   11.8787   15.5559 H         1 UNK         0.1723
@<TRIPOS>BOND
     1    1    2 2    
     2    2    3 1    
     3    2    4 1    
     4    4    5 1    
     5    4   29 1    
     6    4   30 1    
     7    5    6 1    
     8    6   25 2    
     9    6    7 1    
    10    7    8 1    
    11    7    9 2    
    12    9   10 1    
    13    9   24 1    
    14   10   23 ar   
    15   10   11 ar   
    16   11   12 ar   
    17   11   31 1    
    18   12   13 ar   
    19   12   32 1    
    20   13   14 ar   
    21   13   33 1    
    22   14   15 1    
    23   14   23 ar   
    24   15   16 1    
    25   15   34 1    
    26   16   17 1    
    27   16   35 1    
    28   16   36 1    
    29   17   22 ar   
    30   17   18 ar   
    31   18   19 ar   
    32   18   37 1    
    33   19   20 ar   
    34   19   38 1    
    35   20   21 ar   
    36   20   39 1    
    37   21   22 ar   
    38   21   40 1    
    39   22   41 1    
    40   23   42 1    
    41   24   25 1    
    42   25   26 1    
    43   26   27 2    
    44   26   28 1    
@<TRIPOS>SUBSTRUCTURE
@<TRIPOS>MOLECULE
20670
45   47   0
SMALL
NO_CHARGES


@<TRIPOS>ATOM
      1 O1         41.2756   17.6314   11.7392 O.co2     1 UNK        -0.8077
      2 C2         40.5209   17.5798   12.7363 C.2       1 UNK         0.7870
      3 O3         39.5112   18.2966   12.9137 O.co2     1 UNK        -0.8569
      4 C4         40.8718   16.5948   13.8531 C.3       1 UNK         0.0673
      5 O5         42.1284   15.9801   13.6057 O.3       1 UNK        -0.5242
      6 C6         42.5067   15.0961   14.5535 C.2       1 UNK         0.5529
      7 C7         42.1050   13.7638   14.6029 C.2       1 UNK        -0.2276
      8 Br8        41.0604   12.9703   13.2195 Br        1 UNK        -0.0619
      9 C9         42.4736   13.0428   15.7309 C.2       1 UNK        -0.0110
     10 C10        42.1345   11.6814   16.1187 C.ar      1 UNK         0.2390
     11 C11        43.0991   10.8232   16.6550 C.ar      1 UNK        -0.2214
     12 C12        42.7730    9.5138   17.0059 C.ar      1 UNK        -0.1377
     13 C13        41.4767    9.0403   16.8075 C.ar      1 UNK        -0.3018
     14 C14        40.4943    9.8795   16.2662 C.ar      1 UNK         0.4870
     15 N15        39.1733    9.4611   16.0229 N.pl3     1 UNK        -0.7913
     16 C16        38.8859    8.0833   15.6291 C.3       1 UNK         0.3939
     17 C17        39.5180    7.7357   14.2571 C.3       1 UNK        -0.1083
     18 C18        39.1272    6.3322   13.7557 C.3       1 UNK        -0.0301
     19 C19        37.5997    6.1433   13.7304 C.3       1 UNK        -0.0957
     20 C20        36.9683    6.4530   15.1015 C.3       1 UNK        -0.0261
     21 C21        37.3554    7.8561   15.6115 C.3       1 UNK        -0.1975
     22 C22        40.8302   11.1974   15.9487 C.ar      1 UNK        -0.4917
     23 S23        43.4983   14.0501   16.7177 S.3       1 UNK        -0.0344
     24 C24        43.3217   15.4163   15.6304 C.2       1 UNK        -0.3375
     25 C25        44.0307   16.6631   16.0010 C.2       1 UNK         0.7794
     26 O26        44.7160   16.6749   17.0464 O.co2     1 UNK        -0.7832
     27 O27        43.9282   17.6692   15.2634 O.co2     1 UNK        -0.7647
     28 H28        40.0886   15.8379   13.9235 H         1 UNK         0.0352
     29 H29        40.8969   17.1346   14.8012 H         1 UNK         0.0734
     30 H30        44.1104   11.1712   16.8083 H         1 UNK         0.1136
     31 H31        43.5244    8.8661   17.4327 H         1 UNK         0.1521
     32 H32        41.2432    8.0198   17.0746 H         1 UNK         0.1553
     33 H33        38.4441   10.1521   16.1264 H         1 UNK         0.3894
     34 H34        39.3478    7.4468   16.3838 H         1 UNK         0.0237
     35 H35        39.2218    8.4751   13.5130 H         1 UNK         0.0573
     36 H36        40.6041    7.7925   14.3293 H         1 UNK         0.0011
     37 H37        39.5285    6.1763   12.7543 H         1 UNK         0.0249
     38 H38        39.5820    5.5709   14.3894 H         1 UNK         0.0243
     39 H39        37.1627    6.7948   12.9736 H         1 UNK         0.0408
     40 H40        37.3559    5.1232   13.4336 H         1 UNK         0.0300
     41 H41        35.8830    6.3839   15.0288 H         1 UNK         0.0312
     42 H42        37.2746    5.7024   15.8301 H         1 UNK         0.0260
     43 H43        36.9466    7.9992   16.6118 H         1 UNK         0.0490
     44 H44        36.8813    8.6051   14.9772 H         1 UNK         0.0771
     45 H45        40.0955   11.8787   15.5559 H         1 UNK         0.2000
@<TRIPOS>BOND
     1    1    2 2    
     2    2    3 1    
     3    2    4 1    
     4    4    5 1    
     5    4   28 1    
     6    4   29 1    
     7    5    6 1    
     8    6   24 2    
     9    6    7 1    
    10    7    8 1    
    11    7    9 2    
    12    9   10 1    
    13    9   23 1    
    14   10   22 ar   
    15   10   11 ar   
    16   11   12 ar   
    17   11   30 1    
    18   12   13 ar   
    19   12   31 1    
    20   13   14 ar   
    21   13   32 1    
    22   14   15 1    
    23   14   22 ar   
    24   15   16 1    
    25   15   33 1    
    26   16   21 1    
    27   16   17 1    
    28   16   34 1    
    29   17   18 1    
    30   17   35 1    
    31   17   36 1    
    32   18   19 1    
    33   18   37 1    
    34   18   38 1    
    35   19   20 1    
    36   19   39 1    
    37   19   40 1    
    38   20   21 1    
    39   20   41 1    
    40   20   42 1    
    41   21   43 1    
    42   21   44 1    
    43   22   45 1    
    44   23   24 1    
    45   24   25 1    
    46   25   26 2    
    47   25   27 1    
@<TRIPOS>SUBSTRUCTURE
@<TRIPOS>MOLECULE
23330
57   59   0
SMALL
NO_CHARGES


@<TRIPOS>ATOM
      1 S1         43.4763   14.0606   16.7292 S.3       1 UNK        -0.0450
      2 C2         43.3170   15.4419   15.6583 C.2       1 UNK        -0.3097
      3 C3         42.5232   15.1354   14.5618 C.2       1 UNK         0.5325
      4 C4         42.1238   13.8017   14.5845 C.2       1 UNK        -0.2651
      5 C5         42.4727   13.0654   15.7089 C.2       1 UNK         0.0015
      6 C6         44.0161   16.6846   16.0599 C.2       1 UNK         0.7629
      7 O7         44.6816   16.6829   17.1181 O.co2     1 UNK        -0.7812
      8 O8         43.9251   17.7010   15.3349 O.co2     1 UNK        -0.7599
      9 C9         42.1284   11.6968   16.0710 C.ar      1 UNK         0.4491
     10 C10        40.8310   11.2132   15.8697 C.ar      1 UNK        -0.5322
     11 C11        40.4903    9.8921   16.1610 C.ar      1 UNK         0.5328
     12 C12        41.4657    9.0458   16.7094 C.ar      1 UNK        -0.3946
     13 C13        42.7550    9.5190   16.9386 C.ar      1 UNK         0.0515
     14 C14        43.0865   10.8345   16.6130 C.ar      1 UNK        -0.5311
     15 BR1        41.1073   13.0259   13.1705 Br        1 UNK        -0.0575
     16 O20        42.1609   16.0321   13.6196 O.3       1 UNK        -0.5110
     17 C21        40.8984   16.6406   13.8520 C.3       1 UNK         0.0274
     18 C22        40.5663   17.6407   12.7429 C.2       1 UNK         0.7904
     19 O25        41.3395   17.7081   11.7611 O.co2     1 UNK        -0.8052
     20 O26        39.5518   18.3529   12.9114 O.co2     1 UNK        -0.8532
     21 N27        39.1759    9.4718   15.8880 N.pl3     1 UNK        -0.7887
     22 C28        38.7837    8.1426   16.3475 C.3       1 UNK         0.4369
     23 C30        37.3050    7.8782   15.9988 C.3       1 UNK        -0.3335
     24 C31        36.8723    6.4503   16.3880 C.3       1 UNK         0.6840
     25 C32        37.8034    5.3839   15.7768 C.3       1 UNK        -0.5017
     26 C33        39.2820    5.6483   16.1255 C.3       1 UNK         0.6982
     27 C34        39.7148    7.0763   15.7363 C.3       1 UNK        -0.5251
     28 C42        36.8762    6.3181   17.8822 C.3       1 UNK        -0.4855
     29 C46        35.4572    6.2061   15.9546 C.3       1 UNK        -0.4854
     30 C50        39.4906    5.4481   17.5974 C.3       1 UNK        -0.4833
     31 C54        40.1591    4.6414   15.4423 C.3       1 UNK        -0.4641
     32 H10        40.1008   11.8994   15.4723 H         1 UNK         0.1650
     33 H12        41.2296    8.0222   16.9578 H         1 UNK         0.1537
     34 H13        43.5010    8.8665   17.3705 H         1 UNK         0.1204
     35 H14        44.0932   11.1819   16.7902 H         1 UNK         0.2006
     36 H211       40.1158   15.8812   13.8969 H         1 UNK         0.0477
     37 H212       40.9043   17.1668   14.8080 H         1 UNK         0.0831
     38 HN         38.4433   10.1614   15.9870 H         1 UNK         0.4229
     39 H28        38.9047    8.1510   17.4325 H         1 UNK         0.0269
     40 H301       37.1533    8.0240   14.9276 H         1 UNK         0.0660
     41 H302       36.6669    8.6109   16.4959 H         1 UNK         0.0411
     42 H321       37.5102    4.3904   16.1203 H         1 UNK         0.0871
     43 H322       37.6824    5.3756   14.6919 H         1 UNK         0.0806
     44 H341       40.7444    7.2539   16.0516 H         1 UNK         0.1091
     45 H342       39.7120    7.1725   14.6488 H         1 UNK         0.1194
     46 H421       36.5704    5.3090   18.1585 H         1 UNK         0.1005
     47 H422       36.1811    7.0391   18.3126 H         1 UNK         0.1014
     48 H423       37.8799    6.5102   18.2613 H         1 UNK         0.1017
     49 H461       35.1609    5.1951   16.2340 H         1 UNK         0.1051
     50 H462       34.7987    6.9254   16.4416 H         1 UNK         0.1062
     51 H463       35.3836    6.3205   14.8731 H         1 UNK         0.1013
     52 H501       40.5356    5.6347   17.8450 H         1 UNK         0.1016
     53 H502       39.2311    4.4238   17.8650 H         1 UNK         0.1027
     54 H503       38.8566    6.1401   18.1517 H         1 UNK         0.1002
     55 H541       41.2013    4.8366   15.6948 H         1 UNK         0.1022
     56 H542       39.8868    3.6389   15.7726 H         1 UNK         0.1005
     57 H543       40.0265    4.7169   14.3630 H         1 UNK         0.0990
@<TRIPOS>BOND
     1    1    2 1    
     2    1    5 1    
     3    2    3 2    
     4    2    6 1    
     5    3    4 1    
     6    3   16 1    
     7    4    5 2    
     8    4   15 1    
     9    5    9 1    
    10    6    7 2    
    11    6    8 1    
    12    9   10 ar   
    13    9   14 ar   
    14   10   11 ar   
    15   10   32 1    
    16   11   12 ar   
    17   11   21 1    
    18   12   13 ar   
    19   12   33 1    
    20   13   14 ar   
    21   13   34 1    
    22   14   35 1    
    23   16   17 1    
    24   17   18 1    
    25   17   36 1    
    26   17   37 1    
    27   18   19 2    
    28   18   20 1    
    29   21   22 1    
    30   21   38 1    
    31   22   23 1    
    32   22   27 1    
    33   22   39 1    
    34   23   24 1    
    35   23   40 1    
    36   23   41 1    
    37   24   25 1    
    38   24   28 1    
    39   24   29 1    
    40   25   26 1    
    41   25   42 1    
    42   25   43 1    
    43   26   27 1    
    44   26   30 1    
    45   26   31 1    
    46   27   44 1    
    47   27   45 1    
    48   28   46 1    
    49   28   47 1    
    50   28   48 1    
    51   29   49 1    
    52   29   50 1    
    53   29   51 1    
    54   30   52 1    
    55   30   53 1    
    56   30   54 1    
    57   31   55 1    
    58   31   56 1    
    59   31   57 1    
@<TRIPOS>SUBSTRUCTURE
@<TRIPOS>MOLECULE
23466
29   30   0
SMALL
NO_CHARGES


@<TRIPOS>ATOM
      1 N1         39.1733    9.4611   16.0229 N.pl3     1 UNK        -1.0022
      2 C2         40.4943    9.8795   16.2662 C.ar      1 UNK         0.5172
      3 C3         41.4767    9.0403   16.8075 C.ar      1 UNK        -0.3363
      4 C4         42.7730    9.5138   17.0059 C.ar      1 UNK        -0.1287
      5 C5         43.0991   10.8232   16.6550 C.ar      1 UNK        -0.2072
      6 C6         42.1345   11.6814   16.1187 C.ar      1 UNK         0.1956
      7 C7         42.4736   13.0428   15.7309 C.2       1 UNK        -0.0073
      8 S8         43.4983   14.0501   16.7177 S.3       1 UNK        -0.0309
      9 C9         43.3217   15.4163   15.6304 C.2       1 UNK        -0.3000
     10 C10        44.0307   16.6631   16.0010 C.2       1 UNK         0.7663
     11 O11        44.7160   16.6749   17.0464 O.co2     1 UNK        -0.7829
     12 O12        43.9282   17.6692   15.2634 O.co2     1 UNK        -0.7636
     13 C13        42.5067   15.0961   14.5535 C.2       1 UNK         0.4990
     14 O14        42.1284   15.9801   13.6057 O.3       1 UNK        -0.5118
     15 C15        40.8718   16.5948   13.8531 C.3       1 UNK         0.0553
     16 C16        40.5209   17.5798   12.7363 C.2       1 UNK         0.7884
     17 O17        41.2756   17.6314   11.7392 O.co2     1 UNK        -0.8067
     18 O18        39.5112   18.2966   12.9137 O.co2     1 UNK        -0.8576
     19 C19        42.1050   13.7638   14.6029 C.2       1 UNK        -0.2101
     20 Br20       41.0604   12.9703   13.2195 Br        1 UNK        -0.0617
     21 C21        40.8302   11.1974   15.9487 C.ar      1 UNK        -0.4513
     22 H22        38.4441   10.1521   16.1264 H         1 UNK         0.4500
     23 H23        38.9827    8.4810   15.7504 H         1 UNK         0.4459
     24 H24        41.2432    8.0198   17.0746 H         1 UNK         0.1670
     25 H25        43.5244    8.8661   17.4327 H         1 UNK         0.1507
     26 H26        44.1104   11.1712   16.8083 H         1 UNK         0.1101
     27 H27        40.0886   15.8379   13.9235 H         1 UNK         0.0413
     28 H28        40.8969   17.1346   14.8012 H         1 UNK         0.0756
     29 H29        40.0955   11.8787   15.5559 H         1 UNK         0.1962
@<TRIPOS>BOND
     1    1    2 1    
     2    1   22 1    
     3    1   23 1    
     4    2   21 ar   
     5    2    3 ar   
     6    3    4 ar   
     7    3   24 1    
     8    4    5 ar   
     9    4   25 1    
    10    5    6 ar   
    11    5   26 1    
    12    6    7 1    
    13    6   21 ar   
    14    7   19 2    
    15    7    8 1    
    16    8    9 1    
    17    9   10 1    
    18    9   13 2    
    19   10   11 2    
    20   10   12 1    
    21   13   14 1    
    22   13   19 1    
    23   14   15 1    
    24   15   16 1    
    25   15   27 1    
    26   15   28 1    
    27   16   17 2    
    28   16   18 1    
    29   19   20 1    
    30   21   29 1    
@<TRIPOS>SUBSTRUCTURE
@<TRIPOS>MOLECULE
23467
31   32   0
SMALL
NO_CHARGES


@<TRIPOS>ATOM
      1 C1         38.8209    8.1582   16.3321 C.3       1 UNK        -0.0003
      2 O2         39.1882    9.4938   16.0191 O.3       1 UNK        -0.4141
      3 C3         40.4878    9.8835   16.2625 C.ar      1 UNK         0.4661
      4 C4         41.4705    9.0429   16.8010 C.ar      1 UNK        -0.2905
      5 C5         42.7675    9.5153   16.9982 C.ar      1 UNK        -0.1305
      6 C6         43.0939   10.8249   16.6486 C.ar      1 UNK        -0.2111
      7 C7         42.1290   11.6845   16.1151 C.ar      1 UNK         0.2452
      8 C8         42.4685   13.0463   15.7287 C.2       1 UNK        -0.0023
      9 S9         43.4954   14.0514   16.7154 S.3       1 UNK        -0.0243
     10 C10        43.3180   15.4194   15.6303 C.2       1 UNK        -0.3218
     11 C11        44.0285   16.6651   16.0016 C.2       1 UNK         0.7741
     12 O12        44.7155   16.6749   17.0460 O.co2     1 UNK        -0.7819
     13 O13        43.9255   17.6723   15.2656 O.co2     1 UNK        -0.7629
     14 C14        42.5012   15.1012   14.5543 C.2       1 UNK         0.5284
     15 O15        42.1221   15.9869   13.6083 O.3       1 UNK        -0.5231
     16 C16        40.8663   16.6021   13.8585 C.3       1 UNK         0.0769
     17 C17        40.5143   17.5889   12.7437 C.2       1 UNK         0.7842
     18 O18        41.2675   17.6414   11.7455 O.co2     1 UNK        -0.8066
     19 O19        39.5053   18.3062   12.9237 O.co2     1 UNK        -0.8579
     20 C20        42.0987   13.7691   14.6023 C.2       1 UNK        -0.2260
     21 Br21       41.0514   12.9784   13.2194 Br        1 UNK        -0.0519
     22 C22        40.8242   11.2016   15.9463 C.ar      1 UNK        -0.4719
     23 H23        37.7704    8.0068   16.0842 H         1 UNK         0.1079
     24 H24        39.4027    7.4388   15.7544 H         1 UNK         0.0715
     25 H25        38.9416    7.9503   17.3961 H         1 UNK         0.0781
     26 H26        41.2547    8.0212   17.0738 H         1 UNK         0.1627
     27 H27        43.5194    8.8652   17.4207 H         1 UNK         0.1606
     28 H28        44.1072   11.1722   16.7877 H         1 UNK         0.1194
     29 H29        40.0921   15.8365   13.9263 H         1 UNK         0.0385
     30 H30        40.8777   17.1428   14.8065 H         1 UNK         0.0675
     31 H31        40.0549   11.8596   15.5689 H         1 UNK         0.1960
@<TRIPOS>BOND
     1    1    2 1    
     2    1   23 1    
     3    1   24 1    
     4    1   25 1    
     5    2    3 1    
     6    3   22 ar   
     7    3    4 ar   
     8    4    5 ar   
     9    4   26 1    
    10    5    6 ar   
    11    5   27 1    
    12    6    7 ar   
    13    6   28 1    
    14    7    8 1    
    15    7   22 ar   
    16    8   20 2    
    17    8    9 1    
    18    9   10 1    
    19   10   11 1    
    20   10   14 2    
    21   11   12 2    
    22   11   13 1    
    23   14   15 1    
    24   14   20 1    
    25   15   16 1    
    26   16   17 1    
    27   16   29 1    
    28   16   30 1    
    29   17   18 2    
    30   17   19 1    
    31   20   21 1    
    32   22   31 1    
@<TRIPOS>SUBSTRUCTURE
@<TRIPOS>MOLECULE
23468
37   38   0
SMALL
NO_CHARGES


@<TRIPOS>ATOM
      1 C1         36.7898    6.9266   15.1433 C.3       1 UNK        -0.2668
      2 C2         37.2560    8.2751   15.5262 C.3       1 UNK        -0.0670
      3 C3         38.7471    8.2731   15.6901 C.2       1 UNK         0.6811
      4 O4         39.4467    7.2432   15.5159 O.2       1 UNK        -0.6014
      5 N5         39.1733    9.4611   16.0229 N.am      1 UNK        -0.6817
      6 C6         40.4943    9.8795   16.2662 C.ar      1 UNK         0.5276
      7 C7         41.4767    9.0403   16.8075 C.ar      1 UNK        -0.3422
      8 C8         42.7730    9.5138   17.0059 C.ar      1 UNK        -0.1125
      9 C9         43.0991   10.8232   16.6550 C.ar      1 UNK        -0.1951
     10 C10        42.1345   11.6814   16.1187 C.ar      1 UNK         0.2680
     11 C11        42.4736   13.0428   15.7309 C.2       1 UNK        -0.0117
     12 S12        43.4983   14.0501   16.7177 S.3       1 UNK        -0.0247
     13 C13        43.3217   15.4163   15.6304 C.2       1 UNK        -0.3322
     14 C14        44.0307   16.6631   16.0010 C.2       1 UNK         0.7755
     15 O15        44.7160   16.6749   17.0464 O.co2     1 UNK        -0.7811
     16 O16        43.9282   17.6692   15.2634 O.co2     1 UNK        -0.7621
     17 C17        42.5067   15.0961   14.5535 C.2       1 UNK         0.5569
     18 O18        42.1284   15.9801   13.6057 O.3       1 UNK        -0.5243
     19 C19        40.8718   16.5948   13.8531 C.3       1 UNK         0.0626
     20 C20        40.5209   17.5798   12.7363 C.2       1 UNK         0.7902
     21 O21        41.2756   17.6314   11.7392 O.co2     1 UNK        -0.8075
     22 O22        39.5112   18.2966   12.9137 O.co2     1 UNK        -0.8573
     23 C23        42.1050   13.7638   14.6029 C.2       1 UNK        -0.2441
     24 Br24       41.0604   12.9703   13.2195 Br        1 UNK        -0.0544
     25 C25        40.8302   11.1974   15.9487 C.ar      1 UNK        -0.5294
     26 H26        35.7064    6.9257   15.0236 H         1 UNK         0.0862
     27 H27        37.2601    6.6545   14.1984 H         1 UNK         0.0691
     28 H28        37.0712    6.2050   15.9103 H         1 UNK         0.0700
     29 H29        36.9650    9.0170   14.7862 H         1 UNK         0.0653
     30 H30        36.7761    8.5675   16.4981 H         1 UNK         0.0664
     31 H31        38.4441   10.1521   16.1264 H         1 UNK         0.3730
     32 H32        41.2432    8.0198   17.0746 H         1 UNK         0.1952
     33 H33        43.5244    8.8661   17.4327 H         1 UNK         0.1524
     34 H34        44.1104   11.1712   16.8083 H         1 UNK         0.1177
     35 H35        40.0886   15.8379   13.9235 H         1 UNK         0.0357
     36 H36        40.8969   17.1346   14.8012 H         1 UNK         0.0728
     37 H37        40.0955   11.8787   15.5559 H         1 UNK         0.2297
@<TRIPOS>BOND
     1    1    2 1    
     2    1   26 1    
     3    1   27 1    
     4    1   28 1    
     5    2    3 1    
     6    2   29 1    
     7    2   30 1    
     8    3    4 2    
     9    3    5 am   
    10    5    6 1    
    11    5   31 1    
    12    6   25 ar   
    13    6    7 ar   
    14    7    8 ar   
    15    7   32 1    
    16    8    9 ar   
    17    8   33 1    
    18    9   10 ar   
    19    9   34 1    
    20   10   11 1    
    21   10   25 ar   
    22   11   23 2    
    23   11   12 1    
    24   12   13 1    
    25   13   14 1    
    26   13   17 2    
    27   14   15 2    
    28   14   16 1    
    29   17   18 1    
    30   17   23 1    
    31   18   19 1    
    32   19   20 1    
    33   19   35 1    
    34   19   36 1    
    35   20   21 2    
    36   20   22 1    
    37   23   24 1    
    38   25   37 1    
@<TRIPOS>SUBSTRUCTURE
@<TRIPOS>MOLECULE
23469
41   43   0
SMALL
NO_CHARGES


@<TRIPOS>ATOM
      1 O1         41.2756   17.6314   11.7392 O.co2     1 UNK        -0.8094
      2 C2         40.5209   17.5798   12.7363 C.2       1 UNK         0.7965
      3 O3         39.5112   18.2966   12.9137 O.co2     1 UNK        -0.8498
      4 C4         40.8718   16.5948   13.8531 C.3       1 UNK         0.0084
      5 O5         42.1284   15.9801   13.6057 O.3       1 UNK        -0.4823
      6 C6         42.5067   15.0961   14.5535 C.2       1 UNK         0.3976
      7 C7         42.1050   13.7638   14.6029 C.2       1 UNK        -0.1668
      8 Br8        41.0604   12.9703   13.2195 Br        1 UNK        -0.0170
      9 C9         42.4736   13.0428   15.7309 C.2       1 UNK        -0.0480
     10 C10        42.1345   11.6814   16.1187 C.ar      1 UNK         0.2872
     11 C11        43.0991   10.8232   16.6550 C.ar      1 UNK        -0.2651
     12 C12        42.7730    9.5138   17.0059 C.ar      1 UNK        -0.0733
     13 C13        41.4767    9.0403   16.8075 C.ar      1 UNK        -0.3382
     14 C14        40.4943    9.8795   16.2662 C.ar      1 UNK         0.5514
     15 N15        39.1733    9.4611   16.0229 N.am      1 UNK        -0.6507
     16 C16        38.7417    8.2379   15.6766 C.2       1 UNK         0.6008
     17 O17        39.4467    7.2432   15.5159 O.2       1 UNK        -0.5716
     18 C18        37.2506    8.2429   15.5140 C.ar      1 UNK        -0.0462
     19 C19        36.5408    7.0495   15.5761 C.ar      1 UNK        -0.1049
     20 C20        35.1592    7.0541   15.4254 C.ar      1 UNK        -0.1077
     21 C21        34.4873    8.2520   15.2128 C.ar      1 UNK        -0.1045
     22 C22        35.1971    9.4453   15.1507 C.ar      1 UNK        -0.1075
     23 C23        36.5787    9.4408   15.3014 C.ar      1 UNK        -0.1416
     24 C24        40.8302   11.1974   15.9487 C.ar      1 UNK        -0.5379
     25 S25        43.4983   14.0501   16.7177 S.3       1 UNK        -0.0810
     26 C26        43.3217   15.4163   15.6304 C.2       1 UNK        -0.1583
     27 C27        44.0307   16.6631   16.0010 C.2       1 UNK         0.7046
     28 O28        44.7160   16.6749   17.0464 O.co2     1 UNK        -0.7677
     29 O29        43.9282   17.6692   15.2634 O.co2     1 UNK        -0.7489
     30 H30        40.0886   15.8379   13.9235 H         1 UNK         0.0375
     31 H31        40.8969   17.1346   14.8012 H         1 UNK         0.0958
     32 H32        44.1104   11.1712   16.8083 H         1 UNK         0.1185
     33 H33        43.5244    8.8661   17.4327 H         1 UNK         0.1469
     34 H34        41.2432    8.0198   17.0746 H         1 UNK         0.1853
     35 H35        38.4441   10.1521   16.1264 H         1 UNK         0.3774
     36 H36        37.0640    6.1169   15.7416 H         1 UNK         0.1117
     37 H37        34.6066    6.1250   15.4737 H         1 UNK         0.1278
     38 H38        33.4117    8.2555   15.0955 H         1 UNK         0.1284
     39 H39        34.6740   10.3779   14.9852 H         1 UNK         0.1281
     40 H40        37.1313   10.3698   15.2531 H         1 UNK         0.1376
     41 H41        40.0955   11.8787   15.5559 H         1 UNK         0.2367
@<TRIPOS>BOND
     1    1    2 2    
     2    2    3 1    
     3    2    4 1    
     4    4    5 1    
     5    4   30 1    
     6    4   31 1    
     7    5    6 1    
     8    6   26 2    
     9    6    7 1    
    10    7    8 1    
    11    7    9 2    
    12    9   10 1    
    13    9   25 1    
    14   10   24 ar   
    15   10   11 ar   
    16   11   12 ar   
    17   11   32 1    
    18   12   13 ar   
    19   12   33 1    
    20   13   14 ar   
    21   13   34 1    
    22   14   15 1    
    23   14   24 ar   
    24   15   16 am   
    25   15   35 1    
    26   16   17 2    
    27   16   18 1    
    28   18   23 ar   
    29   18   19 ar   
    30   19   20 ar   
    31   19   36 1    
    32   20   21 ar   
    33   20   37 1    
    34   21   22 ar   
    35   21   38 1    
    36   22   23 ar   
    37   22   39 1    
    38   23   40 1    
    39   24   41 1    
    40   25   26 1    
    41   26   27 1    
    42   27   28 2    
    43   27   29 1    
@<TRIPOS>SUBSTRUCTURE
@<TRIPOS>MOLECULE
23470
42   43   0
SMALL
NO_CHARGES


@<TRIPOS>ATOM
      1 C1         37.5954    6.4228   13.8112 C.3       1 UNK        -0.5494
      2 C2         36.9480    6.8450   15.0967 C.3       1 UNK         0.5272
      3 C3         37.2718    5.8489   16.1704 C.3       1 UNK        -0.5101
      4 N4         37.4497    8.1599   15.4853 N.am      1 UNK        -0.7497
      5 C5         38.7554    8.2335   15.6823 C.2       1 UNK         0.8747
      6 O6         39.4481    7.2338   15.5588 O.2       1 UNK        -0.6491
      7 N7         39.1733    9.4611   16.0229 N.am      1 UNK        -0.7535
      8 C8         40.4943    9.8795   16.2662 C.ar      1 UNK         0.5447
      9 C9         41.4767    9.0403   16.8075 C.ar      1 UNK        -0.3709
     10 C10        42.7730    9.5138   17.0059 C.ar      1 UNK        -0.0839
     11 C11        43.0991   10.8232   16.6550 C.ar      1 UNK        -0.2484
     12 C12        42.1345   11.6814   16.1187 C.ar      1 UNK         0.3147
     13 C13        42.4736   13.0428   15.7309 C.2       1 UNK        -0.0018
     14 S14        43.4983   14.0501   16.7177 S.3       1 UNK        -0.0366
     15 C15        43.3217   15.4163   15.6304 C.2       1 UNK        -0.3335
     16 C16        44.0307   16.6631   16.0010 C.2       1 UNK         0.7771
     17 O17        44.7160   16.6749   17.0464 O.co2     1 UNK        -0.7814
     18 O18        43.9282   17.6692   15.2634 O.co2     1 UNK        -0.7646
     19 C19        42.5067   15.0961   14.5535 C.2       1 UNK         0.5624
     20 O20        42.1284   15.9801   13.6057 O.3       1 UNK        -0.5270
     21 C21        40.8718   16.5948   13.8531 C.3       1 UNK         0.0686
     22 C22        40.5209   17.5798   12.7363 C.2       1 UNK         0.7922
     23 O23        41.2756   17.6314   11.7392 O.co2     1 UNK        -0.8080
     24 O24        39.5112   18.2966   12.9137 O.co2     1 UNK        -0.8598
     25 C25        42.1050   13.7638   14.6029 C.2       1 UNK        -0.2546
     26 Br26       41.0604   12.9703   13.2195 Br        1 UNK        -0.0561
     27 C27        40.8302   11.1974   15.9487 C.ar      1 UNK        -0.5567
     28 H28        37.2208    5.4411   13.5210 H         1 UNK         0.1356
     29 H29        37.3601    7.1466   13.0309 H         1 UNK         0.1248
     30 H30        38.6757    6.3737   13.9474 H         1 UNK         0.1552
     31 H31        35.8676    6.8941   14.9604 H         1 UNK         0.0243
     32 H32        36.8972    4.8673   15.8803 H         1 UNK         0.1198
     33 H33        38.3521    5.7999   16.3067 H         1 UNK         0.1525
     34 H34        36.8013    6.1558   17.1045 H         1 UNK         0.1133
     35 H35        36.8475    8.9620   15.5288 H         1 UNK         0.3998
     36 H36        38.4441   10.1521   16.1264 H         1 UNK         0.4195
     37 H37        41.2432    8.0198   17.0746 H         1 UNK         0.1958
     38 H38        43.5244    8.8661   17.4327 H         1 UNK         0.1460
     39 H39        44.1104   11.1712   16.8083 H         1 UNK         0.1246
     40 H40        40.0886   15.8379   13.9235 H         1 UNK         0.0352
     41 H41        40.8969   17.1346   14.8012 H         1 UNK         0.0698
     42 H42        40.0955   11.8787   15.5559 H         1 UNK         0.2171
@<TRIPOS>BOND
     1    1    2 1    
     2    1   28 1    
     3    1   29 1    
     4    1   30 1    
     5    2    3 1    
     6    2    4 1    
     7    2   31 1    
     8    3   32 1    
     9    3   33 1    
    10    3   34 1    
    11    4    5 am   
    12    4   35 1    
    13    5    6 2    
    14    5    7 am   
    15    7    8 1    
    16    7   36 1    
    17    8   27 ar   
    18    8    9 ar   
    19    9   10 ar   
    20    9   37 1    
    21   10   11 ar   
    22   10   38 1    
    23   11   12 ar   
    24   11   39 1    
    25   12   13 1    
    26   12   27 ar   
    27   13   25 2    
    28   13   14 1    
    29   14   15 1    
    30   15   16 1    
    31   15   19 2    
    32   16   17 2    
    33   16   18 1    
    34   19   20 1    
    35   19   25 1    
    36   20   21 1    
    37   21   22 1    
    38   21   40 1    
    39   21   41 1    
    40   22   23 2    
    41   22   24 1    
    42   25   26 1    
    43   27   42 1    
@<TRIPOS>SUBSTRUCTURE
@<TRIPOS>MOLECULE
23471
35   36   0
SMALL
NO_CHARGES


@<TRIPOS>ATOM
      1 C1         36.9731    6.9292   15.1441 C.3       1 UNK        -0.0543
      2 O2         37.4572    8.1676   15.5133 O.3       1 UNK        -0.4348
      3 C3         38.8051    8.2341   15.6686 C.2       1 UNK         0.9089
      4 O4         39.5738    7.2932   15.5046 O.2       1 UNK        -0.6172
      5 N5         39.1733    9.4611   16.0229 N.am      1 UNK        -0.7373
      6 C6         40.4943    9.8795   16.2662 C.ar      1 UNK         0.5455
      7 C7         41.4767    9.0403   16.8075 C.ar      1 UNK        -0.3962
      8 C8         42.7730    9.5138   17.0059 C.ar      1 UNK        -0.0572
      9 C9         43.0991   10.8232   16.6550 C.ar      1 UNK        -0.2265
     10 C10        42.1345   11.6814   16.1187 C.ar      1 UNK         0.2648
     11 C11        42.4736   13.0428   15.7309 C.2       1 UNK        -0.0035
     12 S12        43.4983   14.0501   16.7177 S.3       1 UNK        -0.0243
     13 C13        43.3217   15.4163   15.6304 C.2       1 UNK        -0.3593
     14 C14        44.0307   16.6631   16.0010 C.2       1 UNK         0.7905
     15 O15        44.7160   16.6749   17.0464 O.co2     1 UNK        -0.7832
     16 O16        43.9282   17.6692   15.2634 O.co2     1 UNK        -0.7665
     17 C17        42.5067   15.0961   14.5535 C.2       1 UNK         0.5838
     18 O18        42.1284   15.9801   13.6057 O.3       1 UNK        -0.5321
     19 C19        40.8718   16.5948   13.8531 C.3       1 UNK         0.0757
     20 C20        40.5209   17.5798   12.7363 C.2       1 UNK         0.7944
     21 O21        41.2756   17.6314   11.7392 O.co2     1 UNK        -0.8119
     22 O22        39.5112   18.2966   12.9137 O.co2     1 UNK        -0.8602
     23 C23        42.1050   13.7638   14.6029 C.2       1 UNK        -0.2525
     24 Br24       41.0604   12.9703   13.2195 Br        1 UNK        -0.0546
     25 C25        40.8302   11.1974   15.9487 C.ar      1 UNK        -0.5130
     26 H26        35.8887    6.9776   15.0455 H         1 UNK         0.1266
     27 H27        37.4120    6.6371   14.1901 H         1 UNK         0.0921
     28 H28        37.2363    6.1946   15.9052 H         1 UNK         0.0921
     29 H29        38.4441   10.1521   16.1264 H         1 UNK         0.4095
     30 H30        41.2432    8.0198   17.0746 H         1 UNK         0.2040
     31 H31        43.5244    8.8661   17.4327 H         1 UNK         0.1426
     32 H32        44.1104   11.1712   16.8083 H         1 UNK         0.1231
     33 H33        40.0886   15.8379   13.9235 H         1 UNK         0.0345
     34 H34        40.8969   17.1346   14.8012 H         1 UNK         0.0705
     35 H35        40.0955   11.8787   15.5559 H         1 UNK         0.2256
@<TRIPOS>BOND
     1    1    2 1    
     2    1   26 1    
     3    1   27 1    
     4    1   28 1    
     5    2    3 1    
     6    3    4 2    
     7    3    5 am   
     8    5    6 1    
     9    5   29 1    
    10    6   25 ar   
    11    6    7 ar   
    12    7    8 ar   
    13    7   30 1    
    14    8    9 ar   
    15    8   31 1    
    16    9   10 ar   
    17    9   32 1    
    18   10   11 1    
    19   10   25 ar   
    20   11   23 2    
    21   11   12 1    
    22   12   13 1    
    23   13   14 1    
    24   13   17 2    
    25   14   15 2    
    26   14   16 1    
    27   17   18 1    
    28   17   23 1    
    29   18   19 1    
    30   19   20 1    
    31   19   33 1    
    32   19   34 1    
    33   20   21 2    
    34   20   22 1    
    35   23   24 1    
    36   25   35 1    
@<TRIPOS>SUBSTRUCTURE
@<TRIPOS>MOLECULE
23472
42   44   0
SMALL
NO_CHARGES


@<TRIPOS>ATOM
      1 O1         41.2756   17.6314   11.7392 O.co2     1 UNK        -0.8052
      2 C2         40.5209   17.5798   12.7363 C.2       1 UNK         0.7824
      3 O3         39.5112   18.2966   12.9137 O.co2     1 UNK        -0.8549
      4 C4         40.8718   16.5948   13.8531 C.3       1 UNK         0.0564
      5 O5         42.1284   15.9801   13.6057 O.3       1 UNK        -0.4894
      6 C6         42.5067   15.0961   14.5535 C.2       1 UNK         0.4090
      7 C7         42.1050   13.7638   14.6029 C.2       1 UNK        -0.0623
      8 Br8        41.0604   12.9703   13.2195 Br        1 UNK        -0.1043
      9 C9         42.4736   13.0428   15.7309 C.2       1 UNK        -0.1368
     10 C10        42.1345   11.6814   16.1187 C.ar      1 UNK         0.2724
     11 C11        43.0991   10.8232   16.6550 C.ar      1 UNK        -0.1846
     12 C12        42.7730    9.5138   17.0059 C.ar      1 UNK        -0.0881
     13 C13        41.4767    9.0403   16.8075 C.ar      1 UNK        -0.3236
     14 C14        40.4943    9.8795   16.2662 C.ar      1 UNK         0.3848
     15 N15        39.1733    9.4611   16.0229 N.pl3     1 UNK        -0.6622
     16 S16        38.7118    7.8836   16.5937 S.o2      1 UNK         0.8895
     17 O17        39.9176    7.2287   17.1126 O.2       1 UNK        -0.5128
     18 O18        37.5078    8.0437   17.4165 O.2       1 UNK        -0.5056
     19 C19        38.2367    7.0348   15.1030 C.ar      1 UNK        -0.0846
     20 C20        36.9405    6.5421   14.9690 C.ar      1 UNK        -0.1483
     21 C21        36.5590    5.8769   13.8072 C.ar      1 UNK        -0.1977
     22 C22        37.4825    5.7087   12.7823 C.ar      1 UNK         0.4768
     23 F23        37.1218    5.0642   11.6503 F         1 UNK        -0.2131
     24 C24        38.7766    6.2010   12.9171 C.ar      1 UNK        -0.4432
     25 C25        39.1622    6.8668   14.0772 C.ar      1 UNK         0.0216
     26 C26        40.8302   11.1974   15.9487 C.ar      1 UNK        -0.3454
     27 S27        43.4983   14.0501   16.7177 S.3       1 UNK        -0.0254
     28 C28        43.3217   15.4163   15.6304 C.2       1 UNK        -0.2568
     29 C29        44.0307   16.6631   16.0010 C.2       1 UNK         0.7573
     30 O30        44.7160   16.6749   17.0464 O.co2     1 UNK        -0.7812
     31 O31        43.9282   17.6692   15.2634 O.co2     1 UNK        -0.7575
     32 H32        40.0886   15.8379   13.9235 H         1 UNK         0.0399
     33 H33        40.8969   17.1346   14.8012 H         1 UNK         0.0759
     34 H34        44.1104   11.1712   16.8083 H         1 UNK         0.1282
     35 H35        43.5244    8.8661   17.4327 H         1 UNK         0.1474
     36 H36        41.2432    8.0198   17.0746 H         1 UNK         0.2105
     37 H37        38.4441   10.1521   16.1264 H         1 UNK         0.4279
     38 H38        36.2268    6.6767   15.7707 H         1 UNK         0.1800
     39 H39        35.5553    5.4925   13.6971 H         1 UNK         0.1636
     40 H40        39.4833    6.0624   12.1117 H         1 UNK         0.2182
     41 H41        40.1691    7.2486   14.1793 H         1 UNK         0.1593
     42 H42        40.0955   11.8787   15.5559 H         1 UNK         0.1821
@<TRIPOS>BOND
     1    1    2 2    
     2    2    3 1    
     3    2    4 1    
     4    4    5 1    
     5    4   32 1    
     6    4   33 1    
     7    5    6 1    
     8    6   28 2    
     9    6    7 1    
    10    7    8 1    
    11    7    9 2    
    12    9   10 1    
    13    9   27 1    
    14   10   26 ar   
    15   10   11 ar   
    16   11   12 ar   
    17   11   34 1    
    18   12   13 ar   
    19   12   35 1    
    20   13   14 ar   
    21   13   36 1    
    22   14   15 1    
    23   14   26 ar   
    24   15   16 1    
    25   15   37 1    
    26   16   17 2    
    27   16   18 2    
    28   16   19 1    
    29   19   25 ar   
    30   19   20 ar   
    31   20   21 ar   
    32   20   38 1    
    33   21   22 ar   
    34   21   39 1    
    35   22   23 1    
    36   22   24 ar   
    37   24   25 ar   
    38   24   40 1    
    39   25   41 1    
    40   26   42 1    
    41   27   28 1    
    42   28   29 1    
    43   29   30 2    
    44   29   31 1    
@<TRIPOS>SUBSTRUCTURE
@<TRIPOS>MOLECULE
23473
41   43   0
SMALL
NO_CHARGES


@<TRIPOS>ATOM
      1 O1         41.2896   17.6555   11.7433 O.co2     1 UNK        -0.8045
      2 C2         40.5358   17.6084   12.7413 C.2       1 UNK         0.7852
      3 O3         39.5320   18.3330   12.9210 O.co2     1 UNK        -0.8568
      4 C4         40.8804   16.6191   13.8562 C.3       1 UNK         0.0657
      5 O5         42.1318   15.9949   13.6063 O.3       1 UNK        -0.5301
      6 C6         42.5043   15.1065   14.5524 C.2       1 UNK         0.5678
      7 C7         42.0922   13.7773   14.6003 C.2       1 UNK        -0.2638
      8 Br8        41.0395   12.9941   13.2172 Br        1 UNK        -0.0529
      9 C9         42.4565   13.0519   15.7268 C.2       1 UNK         0.0043
     10 C10        42.1071   11.6926   16.1132 C.ar      1 UNK         0.3454
     11 C11        43.0657   10.8260   16.6470 C.ar      1 UNK        -0.2858
     12 C12        42.7297    9.5188   16.9965 C.ar      1 UNK        -0.0835
     13 C13        41.4294    9.0558   16.7990 C.ar      1 UNK        -0.3185
     14 C14        40.4530    9.9035   16.2603 C.ar      1 UNK         0.4700
     15 O15        39.1208    9.5142   16.0377 O.3       1 UNK        -0.3773
     16 C16        38.7136    8.1208   15.8821 C.3       1 UNK        -0.0841
     17 C17        38.8986    7.6058   14.4607 C.ar      1 UNK         0.1474
     18 C18        40.1685    7.2620   13.9833 C.ar      1 UNK        -0.1562
     19 C19        40.3238    6.7728   12.6861 C.ar      1 UNK        -0.1606
     20 C20        39.2111    6.6058   11.8653 C.ar      1 UNK        -0.1296
     21 C21        37.9431    6.9449   12.3341 C.ar      1 UNK        -0.1065
     22 C22        37.7859    7.4468   13.6266 C.ar      1 UNK        -0.2046
     23 C23        40.7989   11.2191   15.9442 C.ar      1 UNK        -0.5240
     24 S24        43.4904   14.0496   16.7137 S.3       1 UNK        -0.0336
     25 C25        43.3232   15.4188   15.6286 C.2       1 UNK        -0.3360
     26 C26        44.0426   16.6593   16.0000 C.2       1 UNK         0.7756
     27 O27        44.7293   16.6642   17.0445 O.co2     1 UNK        -0.7814
     28 O28        43.9470   17.6673   15.2640 O.co2     1 UNK        -0.7622
     29 H29        40.9168   17.1470   14.8102 H         1 UNK         0.0732
     30 H30        40.0779   15.8820   13.9187 H         1 UNK         0.0378
     31 H31        44.0827   11.1616   16.7888 H         1 UNK         0.1349
     32 H32        43.4788    8.8655   17.4189 H         1 UNK         0.1529
     33 H33        41.2060    8.0361   17.0729 H         1 UNK         0.1630
     34 H34        39.3032    7.4805   16.5399 H         1 UNK         0.1209
     35 H35        37.6630    8.0119   16.1564 H         1 UNK         0.1369
     36 H36        41.0364    7.3738   14.6169 H         1 UNK         0.1326
     37 H37        41.3078    6.5217   12.3184 H         1 UNK         0.1488
     38 H38        39.3303    6.2111   10.8670 H         1 UNK         0.1258
     39 H39        37.0803    6.8177   11.6970 H         1 UNK         0.1270
     40 H40        36.7999    7.7129   13.9787 H         1 UNK         0.1318
     41 H41        40.0354   11.8835   15.5667 H         1 UNK         0.2050
@<TRIPOS>BOND
     1    1    2 2    
     2    2    3 1    
     3    2    4 1    
     4    4    5 1    
     5    4   29 1    
     6    4   30 1    
     7    5    6 1    
     8    6   25 2    
     9    6    7 1    
    10    7    8 1    
    11    7    9 2    
    12    9   10 1    
    13    9   24 1    
    14   10   23 ar   
    15   10   11 ar   
    16   11   12 ar   
    17   11   31 1    
    18   12   13 ar   
    19   12   32 1    
    20   13   14 ar   
    21   13   33 1    
    22   14   15 1    
    23   14   23 ar   
    24   15   16 1    
    25   16   17 1    
    26   16   34 1    
    27   16   35 1    
    28   17   22 ar   
    29   17   18 ar   
    30   18   19 ar   
    31   18   36 1    
    32   19   20 ar   
    33   19   37 1    
    34   20   21 ar   
    35   20   38 1    
    36   21   22 ar   
    37   21   39 1    
    38   22   40 1    
    39   23   41 1    
    40   24   25 1    
    41   25   26 1    
    42   26   27 2    
    43   26   28 1    
@<TRIPOS>SUBSTRUCTURE
@<TRIPOS>MOLECULE
23474
48   50   0
SMALL
NO_CHARGES


@<TRIPOS>ATOM
      1 O1         41.2756   17.6314   11.7392 O.co2     1 UNK        -0.8072
      2 C2         40.5209   17.5798   12.7363 C.2       1 UNK         0.7848
      3 O3         39.5112   18.2966   12.9137 O.co2     1 UNK        -0.8557
      4 C4         40.8718   16.5948   13.8531 C.3       1 UNK         0.0776
      5 O5         42.1284   15.9801   13.6057 O.3       1 UNK        -0.5335
      6 C6         42.5067   15.0961   14.5535 C.2       1 UNK         0.5590
      7 C7         42.1050   13.7638   14.6029 C.2       1 UNK        -0.2465
      8 Br8        41.0610   12.9695   13.2185 Br        1 UNK        -0.0594
      9 C9         42.4736   13.0428   15.7309 C.2       1 UNK        -0.0033
     10 C10        42.1190   11.7066   16.1047 C.ar      1 UNK         0.2901
     11 C11        43.0991   10.8232   16.6550 C.ar      1 UNK        -0.2426
     12 C12        42.7728    9.5111   17.0068 C.ar      1 UNK        -0.1430
     13 C13        41.4805    9.0381   16.8089 C.ar      1 UNK        -0.2712
     14 C14        40.4905    9.8872   16.2630 C.ar      1 UNK         0.4149
     15 N15        39.1770    9.4598   16.0262 N.pl3     1 UNK        -0.5203
     16 C16        38.7512    8.1335   16.4709 C.3       1 UNK        -0.1552
     17 C17        38.2966    7.2117   15.3076 C.3       1 UNK         0.1388
     18 C18        36.9373    7.6112   14.7115 C.3       1 UNK        -0.0737
     19 C19        36.7192    6.8855   13.3655 C.3       1 UNK        -0.0728
     20 C20        36.8785    5.3474   13.4707 C.3       1 UNK        -0.0603
     21 C21        38.0525    4.8762   14.3606 C.3       1 UNK        -0.0074
     22 C22        38.1700    5.7047   15.6469 C.3       1 UNK        -0.1030
     23 C23        40.8281   11.1936   15.9497 C.ar      1 UNK        -0.5324
     24 S24        43.4983   14.0501   16.7177 S.3       1 UNK        -0.0392
     25 C25        43.3217   15.4163   15.6304 C.2       1 UNK        -0.3291
     26 C26        44.0307   16.6631   16.0010 C.2       1 UNK         0.7727
     27 O27        44.7160   16.6749   17.0464 O.co2     1 UNK        -0.7806
     28 O28        43.9282   17.6692   15.2634 O.co2     1 UNK        -0.7632
     29 H29        40.0886   15.8379   13.9235 H         1 UNK         0.0346
     30 H30        40.8969   17.1346   14.8012 H         1 UNK         0.0672
     31 H31        44.1104   11.1712   16.8083 H         1 UNK         0.1169
     32 H32        43.5244    8.8662   17.4327 H         1 UNK         0.1508
     33 H33        41.2458    8.0223   17.0825 H         1 UNK         0.1611
     34 H34        38.4439   10.1523   16.1259 H         1 UNK         0.3689
     35 H35        37.8859    8.2589   17.1492 H         1 UNK         0.1126
     36 H36        39.5733    7.7021   17.0868 H         1 UNK         0.0840
     37 H37        39.0489    7.3119   14.5332 H         1 UNK         0.0032
     38 H38        36.9157    8.6825   14.5273 H         1 UNK         0.0180
     39 H39        36.1277    7.4568   15.4200 H         1 UNK         0.0446
     40 H40        37.4395    7.2734   12.6458 H         1 UNK         0.0384
     41 H41        35.7349    7.1286   12.9597 H         1 UNK         0.0263
     42 H42        35.9544    4.9137   13.8454 H         1 UNK         0.0345
     43 H43        37.0108    4.9327   12.4696 H         1 UNK         0.0178
     44 H44        38.9892    4.9599   13.8096 H         1 UNK         0.0210
     45 H45        37.9429    3.8176   14.6025 H         1 UNK         0.0103
     46 H46        37.3659    5.5205   16.3538 H         1 UNK         0.0326
     47 H47        39.0550    5.3581   16.1703 H         1 UNK         0.0236
     48 H48        40.0951   11.8792   15.5556 H         1 UNK         0.1956
@<TRIPOS>BOND
     1    1    2 2    
     2    2    3 1    
     3    2    4 1    
     4    4    5 1    
     5    4   29 1    
     6    4   30 1    
     7    5    6 1    
     8    6   25 2    
     9    6    7 1    
    10    7    8 1    
    11    7    9 2    
    12    9   10 1    
    13    9   24 1    
    14   10   23 ar   
    15   10   11 ar   
    16   11   12 ar   
    17   11   31 1    
    18   12   13 ar   
    19   12   32 1    
    20   13   14 ar   
    21   13   33 1    
    22   14   15 1    
    23   14   23 ar   
    24   15   16 1    
    25   15   34 1    
    26   16   17 1    
    27   16   35 1    
    28   16   36 1    
    29   17   22 1    
    30   17   18 1    
    31   17   37 1    
    32   18   19 1    
    33   18   38 1    
    34   18   39 1    
    35   19   20 1    
    36   19   40 1    
    37   19   41 1    
    38   20   21 1    
    39   20   42 1    
    40   20   43 1    
    41   21   22 1    
    42   21   44 1    
    43   21   45 1    
    44   22   46 1    
    45   22   47 1    
    46   23   48 1    
    47   24   25 1    
    48   25   26 1    
    49   26   27 2    
    50   26   28 1    
@<TRIPOS>SUBSTRUCTURE
@<TRIPOS>MOLECULE
23475
42   44   0
SMALL
NO_CHARGES


@<TRIPOS>ATOM
      1 O1         41.2756   17.6314   11.7392 O.co2     1 UNK        -0.8072
      2 C2         40.5209   17.5798   12.7363 C.2       1 UNK         0.7843
      3 O3         39.5112   18.2966   12.9137 O.co2     1 UNK        -0.8565
      4 C4         40.8718   16.5948   13.8531 C.3       1 UNK         0.0787
      5 O5         42.1284   15.9801   13.6057 O.3       1 UNK        -0.5310
      6 C6         42.5067   15.0961   14.5535 C.2       1 UNK         0.5520
      7 C7         42.1050   13.7638   14.6029 C.2       1 UNK        -0.2483
      8 Br8        41.0604   12.9703   13.2195 Br        1 UNK        -0.0577
      9 C9         42.4736   13.0428   15.7309 C.2       1 UNK         0.0184
     10 C10        42.1345   11.6814   16.1187 C.ar      1 UNK         0.2618
     11 C11        43.0991   10.8232   16.6550 C.ar      1 UNK        -0.2374
     12 C12        42.7730    9.5138   17.0059 C.ar      1 UNK        -0.1695
     13 C13        41.4767    9.0403   16.8075 C.ar      1 UNK        -0.2318
     14 C14        40.4943    9.8795   16.2662 C.ar      1 UNK         0.4731
     15 N15        39.1733    9.4611   16.0229 N.pl3     1 UNK        -0.7385
     16 C16        38.7860    8.1374   16.5019 C.3       1 UNK         0.2823
     17 C17        37.3349    7.8417   16.0879 C.3       1 UNK        -0.1121
     18 C18        37.4085    6.8211   14.9400 C.3       1 UNK        -0.0949
     19 C19        38.8785    6.7820   14.5157 C.3       1 UNK        -0.0535
     20 C20        39.6387    7.0722   15.8084 C.3       1 UNK        -0.0135
     21 C21        40.8302   11.1974   15.9487 C.ar      1 UNK        -0.5291
     22 S22        43.4983   14.0501   16.7177 S.3       1 UNK        -0.0439
     23 C23        43.3217   15.4163   15.6304 C.2       1 UNK        -0.3286
     24 C24        44.0307   16.6631   16.0010 C.2       1 UNK         0.7734
     25 O25        44.7160   16.6749   17.0464 O.co2     1 UNK        -0.7812
     26 O26        43.9282   17.6692   15.2634 O.co2     1 UNK        -0.7634
     27 H27        40.0886   15.8379   13.9235 H         1 UNK         0.0342
     28 H28        40.8969   17.1346   14.8012 H         1 UNK         0.0692
     29 H29        44.1104   11.1712   16.8083 H         1 UNK         0.1167
     30 H30        43.5244    8.8661   17.4327 H         1 UNK         0.1592
     31 H31        41.2432    8.0198   17.0746 H         1 UNK         0.1271
     32 H32        38.4441   10.1521   16.1264 H         1 UNK         0.4286
     33 H33        38.9225    8.1370   17.5848 H         1 UNK        -0.0028
     34 H34        36.7597    7.4373   16.9231 H         1 UNK         0.0481
     35 H35        36.8331    8.7581   15.7711 H         1 UNK         0.0397
     36 H36        37.1069    5.8366   15.3039 H         1 UNK         0.0492
     37 H37        36.7444    7.0725   14.1110 H         1 UNK         0.0377
     38 H38        39.1624    5.8307   14.0619 H         1 UNK         0.0204
     39 H39        39.0777    7.5661   13.7820 H         1 UNK         0.0383
     40 H40        40.6644    7.4007   15.6319 H         1 UNK        -0.0121
     41 H41        39.6857    6.1710   16.4236 H         1 UNK         0.0268
     42 H42        40.0955   11.8787   15.5559 H         1 UNK         0.1939
@<TRIPOS>BOND
     1    1    2 2    
     2    2    3 1    
     3    2    4 1    
     4    4    5 1    
     5    4   27 1    
     6    4   28 1    
     7    5    6 1    
     8    6   23 2    
     9    6    7 1    
    10    7    8 1    
    11    7    9 2    
    12    9   10 1    
    13    9   22 1    
    14   10   21 ar   
    15   10   11 ar   
    16   11   12 ar   
    17   11   29 1    
    18   12   13 ar   
    19   12   30 1    
    20   13   14 ar   
    21   13   31 1    
    22   14   15 1    
    23   14   21 ar   
    24   15   16 1    
    25   15   32 1    
    26   16   20 1    
    27   16   17 1    
    28   16   33 1    
    29   17   18 1    
    30   17   34 1    
    31   17   35 1    
    32   18   19 1    
    33   18   36 1    
    34   18   37 1    
    35   19   20 1    
    36   19   38 1    
    37   19   39 1    
    38   20   40 1    
    39   20   41 1    
    40   21   42 1    
    41   22   23 1    
    42   23   24 1    
    43   24   25 2    
    44   24   26 1    
@<TRIPOS>SUBSTRUCTURE
@<TRIPOS>MOLECULE
23476
48   50   0
SMALL
NO_CHARGES


@<TRIPOS>ATOM
      1 O1         41.2756   17.6314   11.7392 O.co2     1 UNK        -0.8078
      2 C2         40.5209   17.5798   12.7363 C.2       1 UNK         0.7897
      3 O3         39.5112   18.2966   12.9137 O.co2     1 UNK        -0.8607
      4 C4         40.8718   16.5948   13.8531 C.3       1 UNK         0.0832
      5 O5         42.1284   15.9801   13.6057 O.3       1 UNK        -0.5328
      6 C6         42.5067   15.0961   14.5535 C.2       1 UNK         0.5709
      7 C7         42.1050   13.7638   14.6029 C.2       1 UNK        -0.2549
      8 Br8        41.0604   12.9703   13.2195 Br        1 UNK        -0.0585
      9 C9         42.4736   13.0428   15.7309 C.2       1 UNK         0.0042
     10 C10        42.1345   11.6814   16.1187 C.ar      1 UNK         0.3049
     11 C11        43.0991   10.8232   16.6550 C.ar      1 UNK        -0.2610
     12 C12        42.7730    9.5138   17.0059 C.ar      1 UNK        -0.1324
     13 C13        41.4767    9.0403   16.8075 C.ar      1 UNK        -0.2890
     14 C14        40.4943    9.8795   16.2662 C.ar      1 UNK         0.4830
     15 N15        39.1733    9.4611   16.0229 N.pl3     1 UNK        -0.6423
     16 C16        38.7860    8.1374   16.5019 C.3       1 UNK         0.1965
     17 C17        39.7477    7.0845   15.9208 C.3       1 UNK        -0.0723
     18 C18        39.6502    6.8509   14.3997 C.3       1 UNK        -0.0844
     19 C19        38.3677    6.1150   13.9661 C.3       1 UNK        -0.0227
     20 C20        37.1094    6.9872   13.7711 C.3       1 UNK        -0.0870
     21 C21        36.8894    8.1595   14.7505 C.3       1 UNK         0.0505
     22 C22        37.2876    7.9097   16.2179 C.3       1 UNK        -0.1829
     23 C23        40.8302   11.1974   15.9487 C.ar      1 UNK        -0.5654
     24 S24        43.4983   14.0501   16.7177 S.3       1 UNK        -0.0438
     25 C25        43.3217   15.4163   15.6304 C.2       1 UNK        -0.3439
     26 C26        44.0307   16.6631   16.0010 C.2       1 UNK         0.7832
     27 O27        44.7160   16.6749   17.0464 O.co2     1 UNK        -0.7831
     28 O28        43.9282   17.6692   15.2634 O.co2     1 UNK        -0.7654
     29 H29        40.0886   15.8379   13.9235 H         1 UNK         0.0309
     30 H30        40.8969   17.1346   14.8012 H         1 UNK         0.0670
     31 H31        44.1104   11.1712   16.8083 H         1 UNK         0.1202
     32 H32        43.5244    8.8661   17.4327 H         1 UNK         0.1514
     33 H33        41.2432    8.0198   17.0746 H         1 UNK         0.1482
     34 H34        38.4441   10.1521   16.1264 H         1 UNK         0.3751
     35 H35        38.9335    8.1704   17.5829 H         1 UNK         0.0317
     36 H36        40.7680    7.3891   16.1606 H         1 UNK         0.0110
     37 H37        39.6025    6.1365   16.4423 H         1 UNK         0.0391
     38 H38        39.7606    7.7899   13.8545 H         1 UNK         0.0602
     39 H39        40.5051    6.2393   14.1054 H         1 UNK         0.0357
     40 H40        38.5588    5.5884   13.0292 H         1 UNK         0.0170
     41 H41        38.1499    5.3264   14.6888 H         1 UNK         0.0251
     42 H42        37.1137    7.3941   12.7581 H         1 UNK         0.0272
     43 H43        36.2385    6.3298   13.8039 H         1 UNK         0.0277
     44 H44        37.4217    9.0391   14.3835 H         1 UNK         0.0082
     45 H45        35.8342    8.4364   14.7101 H         1 UNK         0.0104
     46 H46        36.9785    6.9132   16.5383 H         1 UNK         0.0755
     47 H47        36.7249    8.6057   16.8426 H         1 UNK         0.0568
     48 H48        40.0955   11.8787   15.5559 H         1 UNK         0.2059
@<TRIPOS>BOND
     1    1    2 2    
     2    2    3 1    
     3    2    4 1    
     4    4    5 1    
     5    4   29 1    
     6    4   30 1    
     7    5    6 1    
     8    6   25 2    
     9    6    7 1    
    10    7    8 1    
    11    7    9 2    
    12    9   10 1    
    13    9   24 1    
    14   10   23 ar   
    15   10   11 ar   
    16   11   12 ar   
    17   11   31 1    
    18   12   13 ar   
    19   12   32 1    
    20   13   14 ar   
    21   13   33 1    
    22   14   15 1    
    23   14   23 ar   
    24   15   16 1    
    25   15   34 1    
    26   16   22 1    
    27   16   17 1    
    28   16   35 1    
    29   17   18 1    
    30   17   36 1    
    31   17   37 1    
    32   18   19 1    
    33   18   38 1    
    34   18   39 1    
    35   19   20 1    
    36   19   40 1    
    37   19   41 1    
    38   20   21 1    
    39   20   42 1    
    40   20   43 1    
    41   21   22 1    
    42   21   44 1    
    43   21   45 1    
    44   22   46 1    
    45   22   47 1    
    46   23   48 1    
    47   24   25 1    
    48   25   26 1    
    49   26   27 2    
    50   26   28 1    
@<TRIPOS>SUBSTRUCTURE
@<TRIPOS>MOLECULE
23477
43   45   0
SMALL
NO_CHARGES


@<TRIPOS>ATOM
      1 O1         41.2756   17.6314   11.7392 O.co2     1 UNK        -0.8072
      2 C2         40.5209   17.5798   12.7363 C.2       1 UNK         0.7856
      3 O3         39.5112   18.2966   12.9137 O.co2     1 UNK        -0.8553
      4 C4         40.8718   16.5948   13.8531 C.3       1 UNK         0.0628
      5 O5         42.1284   15.9801   13.6057 O.3       1 UNK        -0.5234
      6 C6         42.5067   15.0961   14.5535 C.2       1 UNK         0.5459
      7 C7         42.1050   13.7638   14.6029 C.2       1 UNK        -0.2234
      8 Br8        41.0604   12.9703   13.2195 Br        1 UNK        -0.0622
      9 C9         42.4736   13.0428   15.7309 C.2       1 UNK        -0.0172
     10 C10        42.1345   11.6814   16.1187 C.ar      1 UNK         0.2408
     11 C11        43.0991   10.8232   16.6550 C.ar      1 UNK        -0.2193
     12 C12        42.7730    9.5138   17.0059 C.ar      1 UNK        -0.1389
     13 C13        41.4767    9.0403   16.8075 C.ar      1 UNK        -0.2975
     14 C14        40.4943    9.8795   16.2662 C.ar      1 UNK         0.4797
     15 N15        39.1733    9.4611   16.0229 N.pl3     1 UNK        -0.8089
     16 C16        38.8803    8.0706   15.6816 C.3       1 UNK         0.4501
     17 C17        37.3499    7.8627   15.5714 C.3       1 UNK        -0.2128
     18 C18        36.9746    6.4537   15.0726 C.3       1 UNK         0.1332
     19 O19        37.7104    6.1236   13.8434 O.3       1 UNK        -0.5118
     20 C20        39.1749    6.2318   13.9220 C.3       1 UNK         0.1284
     21 C21        39.5890    7.6410   14.3716 C.3       1 UNK        -0.1431
     22 C22        40.8302   11.1974   15.9487 C.ar      1 UNK        -0.4819
     23 S23        43.4983   14.0501   16.7177 S.3       1 UNK        -0.0316
     24 C24        43.3217   15.4163   15.6304 C.2       1 UNK        -0.3296
     25 C25        44.0307   16.6631   16.0010 C.2       1 UNK         0.7740
     26 O26        44.7160   16.6749   17.0464 O.co2     1 UNK        -0.7808
     27 O27        43.9282   17.6692   15.2634 O.co2     1 UNK        -0.7629
     28 H28        40.0886   15.8379   13.9235 H         1 UNK         0.0360
     29 H29        40.8969   17.1346   14.8012 H         1 UNK         0.0748
     30 H30        44.1104   11.1712   16.8083 H         1 UNK         0.1156
     31 H31        43.5244    8.8661   17.4327 H         1 UNK         0.1529
     32 H32        41.2432    8.0198   17.0746 H         1 UNK         0.1565
     33 H33        38.4441   10.1521   16.1264 H         1 UNK         0.3875
     34 H34        39.2589    7.4686   16.5076 H         1 UNK         0.0173
     35 H35        36.8766    8.0462   16.5360 H         1 UNK         0.0555
     36 H36        36.9348    8.6028   14.8873 H         1 UNK         0.0926
     37 H37        37.2043    5.6975   15.8233 H         1 UNK         0.0363
     38 H38        35.9002    6.3859   14.9017 H         1 UNK         0.0785
     39 H39        39.5253    5.4655   14.6134 H         1 UNK         0.0365
     40 H40        39.6129    5.9826   12.9555 H         1 UNK         0.0744
     41 H41        39.3499    8.3541   13.5828 H         1 UNK         0.0797
     42 H42        40.6706    7.6852   14.4991 H         1 UNK         0.0121
     43 H43        40.0955   11.8787   15.5559 H         1 UNK         0.2011
@<TRIPOS>BOND
     1    1    2 2    
     2    2    3 1    
     3    2    4 1    
     4    4    5 1    
     5    4   28 1    
     6    4   29 1    
     7    5    6 1    
     8    6   24 2    
     9    6    7 1    
    10    7    8 1    
    11    7    9 2    
    12    9   10 1    
    13    9   23 1    
    14   10   22 ar   
    15   10   11 ar   
    16   11   12 ar   
    17   11   30 1    
    18   12   13 ar   
    19   12   31 1    
    20   13   14 ar   
    21   13   32 1    
    22   14   15 1    
    23   14   22 ar   
    24   15   16 1    
    25   15   33 1    
    26   16   21 1    
    27   16   17 1    
    28   16   34 1    
    29   17   18 1    
    30   17   35 1    
    31   17   36 1    
    32   18   19 1    
    33   18   37 1    
    34   18   38 1    
    35   19   20 1    
    36   20   21 1    
    37   20   39 1    
    38   20   40 1    
    39   21   41 1    
    40   21   42 1    
    41   22   43 1    
    42   23   24 1    
    43   24   25 1    
    44   25   26 2    
    45   25   27 1    
@<TRIPOS>SUBSTRUCTURE
@<TRIPOS>MOLECULE
23479
49   51   0
SMALL
NO_CHARGES


@<TRIPOS>ATOM
      1 C1         38.1266    5.2934   11.6676 C.3       1 UNK        -0.4608
      2 C2         37.1264    5.6070   12.7406 C.2       1 UNK         0.6226
      3 O3         35.9116    5.4171   12.6267 O.2       1 UNK        -0.6482
      4 N4         37.7104    6.1236   13.8434 N.am      1 UNK        -0.2820
      5 C5         36.9746    6.4537   15.0726 C.3       1 UNK        -0.0062
      6 C6         37.3499    7.8627   15.5714 C.3       1 UNK        -0.1844
      7 C7         38.8803    8.0706   15.6816 C.3       1 UNK         0.4414
      8 N8         39.1733    9.4611   16.0229 N.pl3     1 UNK        -0.8189
      9 C9         40.4943    9.8795   16.2662 C.ar      1 UNK         0.5518
     10 C10        41.4767    9.0403   16.8075 C.ar      1 UNK        -0.3902
     11 C11        42.7730    9.5138   17.0059 C.ar      1 UNK        -0.0665
     12 C12        43.0991   10.8232   16.6550 C.ar      1 UNK        -0.2757
     13 C13        42.1345   11.6814   16.1187 C.ar      1 UNK         0.2736
     14 C14        42.4736   13.0428   15.7309 C.2       1 UNK         0.0198
     15 S15        43.4983   14.0501   16.7177 S.3       1 UNK        -0.0411
     16 C16        43.3217   15.4163   15.6304 C.2       1 UNK        -0.3620
     17 C17        44.0307   16.6631   16.0010 C.2       1 UNK         0.7918
     18 O18        44.7160   16.6749   17.0464 O.co2     1 UNK        -0.7831
     19 O19        43.9282   17.6692   15.2634 O.co2     1 UNK        -0.7678
     20 C20        42.5067   15.0961   14.5535 C.2       1 UNK         0.5890
     21 O21        42.1284   15.9801   13.6057 O.3       1 UNK        -0.5333
     22 C22        40.8718   16.5948   13.8531 C.3       1 UNK         0.0771
     23 C23        40.5209   17.5798   12.7363 C.2       1 UNK         0.7942
     24 O24        41.2756   17.6314   11.7392 O.co2     1 UNK        -0.8103
     25 O25        39.5112   18.2966   12.9137 O.co2     1 UNK        -0.8602
     26 C26        42.1050   13.7638   14.6029 C.2       1 UNK        -0.2645
     27 Br27       41.0604   12.9703   13.2195 Br        1 UNK        -0.0590
     28 C28        40.8302   11.1974   15.9487 C.ar      1 UNK        -0.5345
     29 C29        39.5890    7.6410   14.3716 C.3       1 UNK        -0.1633
     30 C30        39.1749    6.2318   13.9220 C.3       1 UNK        -0.0121
     31 H31        39.1265    5.5523   12.0161 H         1 UNK         0.1545
     32 H32        38.0874    4.2294   11.4341 H         1 UNK         0.1412
     33 H33        37.8928    5.8706   10.7730 H         1 UNK         0.1279
     34 H34        37.2043    5.6975   15.8233 H         1 UNK         0.0597
     35 H35        35.9002    6.3859   14.9017 H         1 UNK         0.0861
     36 H36        36.8766    8.0462   16.5360 H         1 UNK         0.0631
     37 H37        36.9348    8.6028   14.8873 H         1 UNK         0.0853
     38 H38        39.2589    7.4686   16.5076 H         1 UNK         0.0245
     39 H39        38.4441   10.1521   16.1264 H         1 UNK         0.4014
     40 H40        41.2432    8.0198   17.0746 H         1 UNK         0.1745
     41 H41        43.5244    8.8661   17.4327 H         1 UNK         0.1398
     42 H42        44.1104   11.1712   16.8083 H         1 UNK         0.1232
     43 H43        40.0886   15.8379   13.9235 H         1 UNK         0.0321
     44 H44        40.8969   17.1346   14.8012 H         1 UNK         0.0694
     45 H45        40.0955   11.8787   15.5559 H         1 UNK         0.2032
     46 H46        39.3499    8.3541   13.5828 H         1 UNK         0.0732
     47 H47        40.6706    7.6852   14.4991 H         1 UNK         0.0463
     48 H48        39.5253    5.4655   14.6134 H         1 UNK         0.0655
     49 H49        39.6129    5.9826   12.9555 H         1 UNK         0.0920
@<TRIPOS>BOND
     1    1    2 1    
     2    1   31 1    
     3    1   32 1    
     4    1   33 1    
     5    2    3 2    
     6    2    4 am   
     7    4   30 1    
     8    4    5 1    
     9    5    6 1    
    10    5   34 1    
    11    5   35 1    
    12    6    7 1    
    13    6   36 1    
    14    6   37 1    
    15    7    8 1    
    16    7   29 1    
    17    7   38 1    
    18    8    9 1    
    19    8   39 1    
    20    9   28 ar   
    21    9   10 ar   
    22   10   11 ar   
    23   10   40 1    
    24   11   12 ar   
    25   11   41 1    
    26   12   13 ar   
    27   12   42 1    
    28   13   14 1    
    29   13   28 ar   
    30   14   26 2    
    31   14   15 1    
    32   15   16 1    
    33   16   17 1    
    34   16   20 2    
    35   17   18 2    
    36   17   19 1    
    37   20   21 1    
    38   20   26 1    
    39   21   22 1    
    40   22   23 1    
    41   22   43 1    
    42   22   44 1    
    43   23   24 2    
    44   23   25 1    
    45   26   27 1    
    46   28   45 1    
    47   29   30 1    
    48   29   46 1    
    49   29   47 1    
    50   30   48 1    
    51   30   49 1    
@<TRIPOS>SUBSTRUCTURE
@<TRIPOS>MOLECULE
23480
50   52   0
SMALL
NO_CHARGES


@<TRIPOS>ATOM
      1 C1         37.6441    3.2545   11.8011 C.3       1 UNK        -0.1663
      2 O2         38.0175    4.5103   12.2345 O.3       1 UNK        -0.3505
      3 C3         37.3287    4.7968   13.3684 C.2       1 UNK         0.7605
      4 O4         36.5212    4.0273   13.8768 O.2       1 UNK        -0.6348
      5 N5         37.7104    6.1236   13.8434 N.am      1 UNK        -0.3565
      6 C6         39.1749    6.2318   13.9220 C.3       1 UNK        -0.0120
      7 C7         39.5890    7.6410   14.3716 C.3       1 UNK        -0.1094
      8 C8         38.8803    8.0706   15.6816 C.3       1 UNK         0.4138
      9 N9         39.1733    9.4611   16.0229 N.pl3     1 UNK        -0.8165
     10 C10        40.4943    9.8795   16.2662 C.ar      1 UNK         0.5455
     11 C11        41.4767    9.0403   16.8075 C.ar      1 UNK        -0.3813
     12 C12        42.7730    9.5138   17.0059 C.ar      1 UNK        -0.0733
     13 C13        43.0991   10.8232   16.6550 C.ar      1 UNK        -0.2713
     14 C14        42.1345   11.6814   16.1187 C.ar      1 UNK         0.2721
     15 C15        42.4736   13.0428   15.7309 C.2       1 UNK         0.0216
     16 S16        43.4983   14.0501   16.7177 S.3       1 UNK        -0.0438
     17 C17        43.3217   15.4163   15.6304 C.2       1 UNK        -0.3646
     18 C18        44.0307   16.6631   16.0010 C.2       1 UNK         0.7935
     19 O19        44.7160   16.6749   17.0464 O.co2     1 UNK        -0.7825
     20 O20        43.9282   17.6692   15.2634 O.co2     1 UNK        -0.7692
     21 C21        42.5067   15.0961   14.5535 C.2       1 UNK         0.5928
     22 O22        42.1284   15.9801   13.6057 O.3       1 UNK        -0.5324
     23 C23        40.8718   16.5948   13.8531 C.3       1 UNK         0.0768
     24 C24        40.5209   17.5798   12.7363 C.2       1 UNK         0.7942
     25 O25        41.2756   17.6314   11.7392 O.co2     1 UNK        -0.8114
     26 O26        39.5112   18.2966   12.9137 O.co2     1 UNK        -0.8609
     27 C27        42.1050   13.7638   14.6029 C.2       1 UNK        -0.2677
     28 Br28       41.0604   12.9703   13.2195 Br        1 UNK        -0.0589
     29 C29        40.8302   11.1974   15.9487 C.ar      1 UNK        -0.5316
     30 C30        37.3499    7.8627   15.5714 C.3       1 UNK        -0.1715
     31 C31        36.9746    6.4537   15.0726 C.3       1 UNK         0.0116
     32 H32        38.1886    3.0078   10.8896 H         1 UNK         0.1435
     33 H33        37.8756    2.5201   12.5726 H         1 UNK         0.1152
     34 H34        36.5731    3.2435   11.5987 H         1 UNK         0.1197
     35 H35        39.5253    5.4655   14.6134 H         1 UNK         0.0678
     36 H36        39.6129    5.9826   12.9555 H         1 UNK         0.0744
     37 H37        39.3499    8.3541   13.5828 H         1 UNK         0.0641
     38 H38        40.6706    7.6852   14.4991 H         1 UNK         0.0366
     39 H39        39.2589    7.4686   16.5076 H         1 UNK         0.0293
     40 H40        38.4441   10.1521   16.1264 H         1 UNK         0.4025
     41 H41        41.2432    8.0198   17.0746 H         1 UNK         0.1706
     42 H42        43.5244    8.8661   17.4327 H         1 UNK         0.1407
     43 H43        44.1104   11.1712   16.8083 H         1 UNK         0.1232
     44 H44        40.0886   15.8379   13.9235 H         1 UNK         0.0332
     45 H45        40.8969   17.1346   14.8012 H         1 UNK         0.0711
     46 H46        40.0955   11.8787   15.5559 H         1 UNK         0.2021
     47 H47        36.8766    8.0462   16.5360 H         1 UNK         0.0650
     48 H48        36.9348    8.6028   14.8873 H         1 UNK         0.0827
     49 H49        37.2043    5.6975   15.8233 H         1 UNK         0.0647
     50 H50        35.9002    6.3859   14.9017 H         1 UNK         0.0776
@<TRIPOS>BOND
     1    1    2 1    
     2    1   32 1    
     3    1   33 1    
     4    1   34 1    
     5    2    3 1    
     6    3    4 2    
     7    3    5 am   
     8    5   31 1    
     9    5    6 1    
    10    6    7 1    
    11    6   35 1    
    12    6   36 1    
    13    7    8 1    
    14    7   37 1    
    15    7   38 1    
    16    8    9 1    
    17    8   30 1    
    18    8   39 1    
    19    9   10 1    
    20    9   40 1    
    21   10   29 ar   
    22   10   11 ar   
    23   11   12 ar   
    24   11   41 1    
    25   12   13 ar   
    26   12   42 1    
    27   13   14 ar   
    28   13   43 1    
    29   14   15 1    
    30   14   29 ar   
    31   15   27 2    
    32   15   16 1    
    33   16   17 1    
    34   17   18 1    
    35   17   21 2    
    36   18   19 2    
    37   18   20 1    
    38   21   22 1    
    39   21   27 1    
    40   22   23 1    
    41   23   24 1    
    42   23   44 1    
    43   23   45 1    
    44   24   25 2    
    45   24   26 1    
    46   27   28 1    
    47   29   46 1    
    48   30   31 1    
    49   30   47 1    
    50   30   48 1    
    51   31   49 1    
    52   31   50 1    
@<TRIPOS>SUBSTRUCTURE
@<TRIPOS>MOLECULE
23482
50   52   0
SMALL
NO_CHARGES


@<TRIPOS>ATOM
      1 C1         37.1108    3.5774   13.0001 C.3       1 UNK        -0.3586
      2 S2         36.9621    5.3331   12.4449 S.o2      1 UNK         0.8335
      3 O3         35.5372    5.7059   12.4065 O.2       1 UNK        -0.5166
      4 O4         37.8058    5.5095   11.2549 O.2       1 UNK        -0.5173
      5 N5         37.7062    6.2049   13.7263 N.pl3     1 UNK        -0.3606
      6 C6         39.1708    6.3213   13.7904 C.3       1 UNK        -0.0157
      7 C7         39.5805    7.7139   14.2926 C.3       1 UNK        -0.2126
      8 C8         38.8860    8.0836   15.6282 C.3       1 UNK         0.4182
      9 N9         39.1733    9.4611   16.0229 N.pl3     1 UNK        -0.7950
     10 C10        40.4943    9.8795   16.2662 C.ar      1 UNK         0.5080
     11 C11        41.4767    9.0403   16.8075 C.ar      1 UNK        -0.3354
     12 C12        42.7730    9.5138   17.0059 C.ar      1 UNK        -0.1012
     13 C13        43.0991   10.8232   16.6550 C.ar      1 UNK        -0.2544
     14 C14        42.1345   11.6814   16.1187 C.ar      1 UNK         0.2602
     15 C15        42.4736   13.0428   15.7309 C.2       1 UNK         0.0027
     16 S16        43.4983   14.0501   16.7177 S.3       1 UNK        -0.0406
     17 C17        43.3217   15.4163   15.6304 C.2       1 UNK        -0.3542
     18 C18        44.0307   16.6631   16.0010 C.2       1 UNK         0.7916
     19 O19        44.7160   16.6749   17.0464 O.co2     1 UNK        -0.7832
     20 O20        43.9282   17.6692   15.2634 O.co2     1 UNK        -0.7691
     21 C21        42.5067   15.0961   14.5535 C.2       1 UNK         0.5727
     22 O22        42.1284   15.9801   13.6057 O.3       1 UNK        -0.5262
     23 C23        40.8718   16.5948   13.8531 C.3       1 UNK         0.0699
     24 C24        40.5209   17.5798   12.7363 C.2       1 UNK         0.7920
     25 O25        41.2756   17.6314   11.7392 O.co2     1 UNK        -0.8085
     26 O26        39.5112   18.2966   12.9137 O.co2     1 UNK        -0.8600
     27 C27        42.1050   13.7638   14.6029 C.2       1 UNK        -0.2456
     28 Br28       41.0604   12.9703   13.2195 Br        1 UNK        -0.0593
     29 C29        40.8302   11.1974   15.9487 C.ar      1 UNK        -0.5023
     30 C30        37.3559    7.8684   15.5293 C.3       1 UNK        -0.2898
     31 C31        36.9843    6.4782   14.9776 C.3       1 UNK         0.0129
     32 H32        36.5200    3.4182   13.9007 H         1 UNK         0.1551
     33 H33        36.7415    2.9218   12.2122 H         1 UNK         0.1739
     34 H34        38.1569    3.3479   13.2005 H         1 UNK         0.1520
     35 H35        39.5359    5.5299   14.4450 H         1 UNK         0.0847
     36 H36        39.5978    6.1156   12.8089 H         1 UNK         0.1209
     37 H37        40.6631    7.7630   14.4094 H         1 UNK         0.0579
     38 H38        39.3254    8.4586   13.5386 H         1 UNK         0.1033
     39 H39        39.2783    7.4618   16.4329 H         1 UNK         0.0430
     40 H40        38.4441   10.1521   16.1264 H         1 UNK         0.4067
     41 H41        41.2432    8.0198   17.0746 H         1 UNK         0.1601
     42 H42        43.5244    8.8661   17.4327 H         1 UNK         0.1460
     43 H43        44.1104   11.1712   16.8083 H         1 UNK         0.1222
     44 H44        40.0886   15.8379   13.9235 H         1 UNK         0.0348
     45 H45        40.8969   17.1346   14.8012 H         1 UNK         0.0731
     46 H46        40.0955   11.8787   15.5559 H         1 UNK         0.1964
     47 H47        36.8941    8.0082   16.5067 H         1 UNK         0.1001
     48 H48        36.9263    8.6328   14.8818 H         1 UNK         0.1178
     49 H49        35.9109    6.3985   14.8060 H         1 UNK         0.1188
     50 H50        37.2324    5.6838   15.6814 H         1 UNK         0.0775
@<TRIPOS>BOND
     1    1    2 1    
     2    1   32 1    
     3    1   33 1    
     4    1   34 1    
     5    2    3 2    
     6    2    4 2    
     7    2    5 1    
     8    5   31 1    
     9    5    6 1    
    10    6    7 1    
    11    6   35 1    
    12    6   36 1    
    13    7    8 1    
    14    7   37 1    
    15    7   38 1    
    16    8    9 1    
    17    8   30 1    
    18    8   39 1    
    19    9   10 1    
    20    9   40 1    
    21   10   29 ar   
    22   10   11 ar   
    23   11   12 ar   
    24   11   41 1    
    25   12   13 ar   
    26   12   42 1    
    27   13   14 ar   
    28   13   43 1    
    29   14   15 1    
    30   14   29 ar   
    31   15   27 2    
    32   15   16 1    
    33   16   17 1    
    34   17   18 1    
    35   17   21 2    
    36   18   19 2    
    37   18   20 1    
    38   21   22 1    
    39   21   27 1    
    40   22   23 1    
    41   23   24 1    
    42   23   44 1    
    43   23   45 1    
    44   24   25 2    
    45   24   26 1    
    46   27   28 1    
    47   29   46 1    
    48   30   31 1    
    49   30   47 1    
    50   30   48 1    
    51   31   49 1    
    52   31   50 1    
@<TRIPOS>SUBSTRUCTURE
@<TRIPOS>MOLECULE
23483
57   60   0
SMALL
NO_CHARGES


@<TRIPOS>ATOM
      1 O1         41.2756   17.6314   11.7392 O.co2     1 UNK        -0.8107
      2 C2         40.5209   17.5798   12.7363 C.2       1 UNK         0.7936
      3 O3         39.5112   18.2966   12.9137 O.co2     1 UNK        -0.8554
      4 C4         40.8718   16.5948   13.8531 C.3       1 UNK         0.0494
      5 O5         42.1284   15.9801   13.6057 O.3       1 UNK        -0.5234
      6 C6         42.5067   15.0961   14.5535 C.2       1 UNK         0.5780
      7 C7         42.1050   13.7638   14.6029 C.2       1 UNK        -0.2674
      8 Br8        41.0604   12.9703   13.2195 Br        1 UNK        -0.0632
      9 C9         42.4736   13.0428   15.7309 C.2       1 UNK         0.0177
     10 C10        42.1345   11.6814   16.1187 C.ar      1 UNK         0.3798
     11 C11        43.0991   10.8232   16.6550 C.ar      1 UNK        -0.3576
     12 C12        42.7730    9.5138   17.0059 C.ar      1 UNK        -0.0292
     13 C13        41.4767    9.0403   16.8075 C.ar      1 UNK        -0.4318
     14 C14        40.4943    9.8795   16.2662 C.ar      1 UNK         0.5826
     15 N15        39.1733    9.4611   16.0229 N.pl3     1 UNK        -0.8408
     16 C16        38.8803    8.0706   15.6816 C.3       1 UNK         0.5117
     17 C17        37.3499    7.8627   15.5714 C.3       1 UNK        -0.2222
     18 C18        36.9746    6.4537   15.0726 C.3       1 UNK        -0.0752
     19 N19        37.7104    6.1236   13.8434 N.pl3     1 UNK        -0.2739
     20 S20        36.9761    5.2050   12.5892 S.o2      1 UNK         0.6764
     21 O21        35.5548    5.5863   12.5166 O.2       1 UNK        -0.4818
     22 O22        37.8364    5.3259   11.4042 O.2       1 UNK        -0.4831
     23 C23        37.0239    3.4964   13.0859 C.ar      1 UNK         0.1390
     24 C24        37.6956    2.5640   12.3042 C.ar      1 UNK        -0.2059
     25 C25        37.7328    1.2299   12.6920 C.ar      1 UNK        -0.0631
     26 C26        37.0984    0.8282   13.8615 C.ar      1 UNK        -0.1477
     27 C27        36.4267    1.7606   14.6432 C.ar      1 UNK        -0.0659
     28 C28        36.3894    3.0947   14.2554 C.ar      1 UNK        -0.1850
     29 C29        39.1749    6.2318   13.9220 C.3       1 UNK        -0.0454
     30 C30        39.5890    7.6410   14.3717 C.3       1 UNK        -0.3205
     31 C31        40.8302   11.1974   15.9487 C.ar      1 UNK        -0.5824
     32 S32        43.4983   14.0501   16.7177 S.3       1 UNK        -0.0538
     33 C33        43.3217   15.4163   15.6304 C.2       1 UNK        -0.3439
     34 C34        44.0307   16.6631   16.0010 C.2       1 UNK         0.7800
     35 O35        44.7160   16.6749   17.0464 O.co2     1 UNK        -0.7790
     36 O36        43.9282   17.6692   15.2634 O.co2     1 UNK        -0.7666
     37 H37        40.0813   15.8477   13.9224 H         1 UNK         0.0383
     38 H38        40.9064   17.1393   14.7978 H         1 UNK         0.0786
     39 H39        44.1097   11.1798   16.7960 H         1 UNK         0.1419
     40 H40        43.5293    8.8668   17.4234 H         1 UNK         0.1373
     41 H41        41.2479    8.0235   17.0836 H         1 UNK         0.1802
     42 H42        38.4673   10.1217   16.0634 H         1 UNK         0.4223
     43 H43        39.2317    7.4315   16.4917 H         1 UNK         0.0022
     44 H44        36.8731    8.0567   16.5330 H         1 UNK         0.0913
     45 H45        36.9371    8.5923   14.8727 H         1 UNK         0.0902
     46 H46        37.1972    5.7057   15.8339 H         1 UNK         0.0793
     47 H47        35.9003    6.4073   14.8891 H         1 UNK         0.1390
     48 H48        38.1895    2.8768   11.3937 H         1 UNK         0.1506
     49 H49        38.2558    0.5040   12.0834 H         1 UNK         0.1343
     50 H50        37.1274   -0.2105   14.1634 H         1 UNK         0.1431
     51 H51        35.9328    1.4478   15.5537 H         1 UNK         0.1341
     52 H52        35.8665    3.8206   14.8640 H         1 UNK         0.1421
     53 H53        39.5531    5.4805   14.6155 H         1 UNK         0.0869
     54 H54        39.6255    6.0183   12.9522 H         1 UNK         0.1379
     55 H55        39.3407    8.3478   13.5779 H         1 UNK         0.1213
     56 H56        40.6728    7.6820   14.4817 H         1 UNK         0.1158
     57 H57        40.0763   11.8608   15.5520 H         1 UNK         0.1999
@<TRIPOS>BOND
     1    1    2 2    
     2    2    3 1    
     3    2    4 1    
     4    4    5 1    
     5    4   37 1    
     6    4   38 1    
     7    5    6 1    
     8    6   33 2    
     9    6    7 1    
    10    7    8 1    
    11    7    9 2    
    12    9   10 1    
    13    9   32 1    
    14   10   31 ar   
    15   10   11 ar   
    16   11   12 ar   
    17   11   39 1    
    18   12   13 ar   
    19   12   40 1    
    20   13   14 ar   
    21   13   41 1    
    22   14   15 1    
    23   14   31 ar   
    24   15   16 1    
    25   15   42 1    
    26   16   30 1    
    27   16   17 1    
    28   16   43 1    
    29   17   18 1    
    30   17   44 1    
    31   17   45 1    
    32   18   19 1    
    33   18   46 1    
    34   18   47 1    
    35   19   20 1    
    36   19   29 1    
    37   20   21 2    
    38   20   22 2    
    39   20   23 1    
    40   23   28 ar   
    41   23   24 ar   
    42   24   25 ar   
    43   24   48 1    
    44   25   26 ar   
    45   25   49 1    
    46   26   27 ar   
    47   26   50 1    
    48   27   28 ar   
    49   27   51 1    
    50   28   52 1    
    51   29   30 1    
    52   29   53 1    
    53   29   54 1    
    54   30   55 1    
    55   30   56 1    
    56   31   57 1    
    57   32   33 1    
    58   33   34 1    
    59   34   35 2    
    60   34   36 1    
@<TRIPOS>SUBSTRUCTURE
@<TRIPOS>MOLECULE
23484
60   63   0
SMALL
NO_CHARGES


@<TRIPOS>ATOM
      1 O1         41.2756   17.6314   11.7392 O.co2     1 UNK        -0.8183
      2 C2         40.5209   17.5798   12.7363 C.2       1 UNK         0.7956
      3 O3         39.5112   18.2966   12.9137 O.co2     1 UNK        -0.8589
      4 C4         40.8718   16.5948   13.8531 C.3       1 UNK         0.0437
      5 O5         42.1284   15.9801   13.6057 O.3       1 UNK        -0.4660
      6 C6         42.5067   15.0961   14.5535 C.2       1 UNK         0.3514
      7 C7         42.1050   13.7638   14.6029 C.2       1 UNK        -0.2416
      8 C8         42.4736   13.0428   15.7309 C.2       1 UNK        -0.0861
      9 C9         42.1345   11.6814   16.1187 C.ar      1 UNK         0.2058
     10 C10        43.0991   10.8232   16.6550 C.ar      1 UNK        -0.2227
     11 C11        42.7730    9.5138   17.0059 C.ar      1 UNK        -0.1327
     12 C12        41.4767    9.0403   16.8075 C.ar      1 UNK        -0.3181
     13 C13        40.4943    9.8795   16.2662 C.ar      1 UNK         0.4843
     14 N14        39.1733    9.4611   16.0229 N.pl3     1 UNK        -0.8768
     15 C15        38.8803    8.0706   15.6816 C.3       1 UNK         0.5134
     16 C16        37.3499    7.8627   15.5714 C.3       1 UNK        -0.2928
     17 C17        36.9746    6.4537   15.0726 C.3       1 UNK        -0.0202
     18 N18        37.7104    6.1236   13.8434 N.pl3     1 UNK        -0.1895
     19 S19        36.9761    5.2050   12.5892 S.o2      1 UNK         0.7422
     20 O20        37.8364    5.3259   11.4042 O.2       1 UNK        -0.4979
     21 O21        35.5548    5.5863   12.5166 O.2       1 UNK        -0.4958
     22 C22        37.1037    3.4728   13.2183 C.3       1 UNK        -0.3730
     23 C23        36.7137    2.5266   12.0998 C.ar      1 UNK         0.2677
     24 C24        35.3715    2.1867   11.9063 C.ar      1 UNK        -0.2345
     25 C25        35.0075    1.3509   10.8514 C.ar      1 UNK        -0.0975
     26 C26        35.9839    0.8540    9.9894 C.ar      1 UNK        -0.1544
     27 C27        37.3260    1.1810   10.1830 C.ar      1 UNK        -0.0918
     28 C28        37.6914    2.0147   11.2396 C.ar      1 UNK        -0.2509
     29 C29        39.1749    6.2318   13.9220 C.3       1 UNK        -0.0927
     30 C30        39.5890    7.6410   14.3716 C.3       1 UNK        -0.1937
     31 C31        40.8302   11.1974   15.9487 C.ar      1 UNK        -0.4089
     32 S32        43.4983   14.0501   16.7177 S.3       1 UNK        -0.0954
     33 C33        43.3217   15.4163   15.6304 C.2       1 UNK        -0.2016
     34 C34        44.0307   16.6631   16.0010 C.2       1 UNK         0.7262
     35 O35        44.7160   16.6749   17.0464 O.co2     1 UNK        -0.7814
     36 O36        43.9282   17.6692   15.2634 O.co2     1 UNK        -0.7612
     37 H37        40.0886   15.8379   13.9235 H         1 UNK         0.0458
     38 H38        40.8969   17.1346   14.8012 H         1 UNK         0.0718
     39 H39        41.5362   13.3167   13.8010 H         1 UNK         0.1662
     40 H40        44.1104   11.1712   16.8083 H         1 UNK         0.1357
     41 H41        43.5244    8.8661   17.4327 H         1 UNK         0.1483
     42 H42        41.2432    8.0198   17.0746 H         1 UNK         0.1593
     43 H43        38.4441   10.1521   16.1264 H         1 UNK         0.4231
     44 H44        39.2589    7.4686   16.5076 H         1 UNK         0.0187
     45 H45        36.8766    8.0462   16.5360 H         1 UNK         0.1007
     46 H46        36.9348    8.6028   14.8873 H         1 UNK         0.0989
     47 H47        37.2043    5.6975   15.8233 H         1 UNK         0.0717
     48 H48        35.9002    6.3859   14.9017 H         1 UNK         0.1208
     49 H49        38.1271    3.3079   13.5550 H         1 UNK         0.1740
     50 H50        36.4608    3.3486   14.0877 H         1 UNK         0.1602
     51 H51        34.6091    2.5781   12.5626 H         1 UNK         0.1569
     52 H52        33.9697    1.0939   10.6989 H         1 UNK         0.1275
     53 H53        35.7040    0.2213    9.1599 H         1 UNK         0.1339
     54 H54        38.0756    0.8016    9.5040 H         1 UNK         0.1293
     55 H55        38.7321    2.2645   11.3849 H         1 UNK         0.1512
     56 H56        39.5253    5.4655   14.6134 H         1 UNK         0.0819
     57 H57        39.6129    5.9826   12.9555 H         1 UNK         0.1340
     58 H58        39.3499    8.3541   13.5828 H         1 UNK         0.0756
     59 H59        40.6706    7.6852   14.4991 H         1 UNK         0.0678
     60 H60        40.0955   11.8787   15.5559 H         1 UNK         0.1709
@<TRIPOS>BOND
     1    1    2 2    
     2    2    3 1    
     3    2    4 1    
     4    4    5 1    
     5    4   37 1    
     6    4   38 1    
     7    5    6 1    
     8    6   33 2    
     9    6    7 1    
    10    7    8 2    
    11    7   39 1    
    12    8    9 1    
    13    8   32 1    
    14    9   31 ar   
    15    9   10 ar   
    16   10   11 ar   
    17   10   40 1    
    18   11   12 ar   
    19   11   41 1    
    20   12   13 ar   
    21   12   42 1    
    22   13   14 1    
    23   13   31 ar   
    24   14   15 1    
    25   14   43 1    
    26   15   30 1    
    27   15   16 1    
    28   15   44 1    
    29   16   17 1    
    30   16   45 1    
    31   16   46 1    
    32   17   18 1    
    33   17   47 1    
    34   17   48 1    
    35   18   19 1    
    36   18   29 1    
    37   19   20 2    
    38   19   21 2    
    39   19   22 1    
    40   22   23 1    
    41   22   49 1    
    42   22   50 1    
    43   23   28 ar   
    44   23   24 ar   
    45   24   25 ar   
    46   24   51 1    
    47   25   26 ar   
    48   25   52 1    
    49   26   27 ar   
    50   26   53 1    
    51   27   28 ar   
    52   27   54 1    
    53   28   55 1    
    54   29   30 1    
    55   29   56 1    
    56   29   57 1    
    57   30   58 1    
    58   30   59 1    
    59   31   60 1    
    60   32   33 1    
    61   33   34 1    
    62   34   35 2    
    63   34   36 1    
@<TRIPOS>SUBSTRUCTURE
@<TRIPOS>MOLECULE
23485
63   66   0
SMALL
NO_CHARGES


@<TRIPOS>ATOM
      1 C1         41.2328   13.2181   13.5113 C.3       1 UNK        -0.2906
      2 C2         42.1050   13.7638   14.6029 C.2       1 UNK         0.2092
      3 C3         42.5067   15.0961   14.5535 C.2       1 UNK         0.1286
      4 O4         42.1284   15.9801   13.6057 O.3       1 UNK        -0.3996
      5 C5         40.8718   16.5948   13.8531 C.3       1 UNK        -0.0040
      6 C6         40.5209   17.5798   12.7363 C.2       1 UNK         0.7874
      7 O7         41.2756   17.6314   11.7392 O.co2     1 UNK        -0.8059
      8 O8         39.5112   18.2966   12.9137 O.co2     1 UNK        -0.8544
      9 C9         43.3217   15.4163   15.6304 C.2       1 UNK        -0.0792
     10 C10        44.0307   16.6631   16.0010 C.2       1 UNK         0.7020
     11 O11        44.7160   16.6749   17.0464 O.co2     1 UNK        -0.7932
     12 O12        43.9282   17.6692   15.2634 O.co2     1 UNK        -0.7705
     13 S13        43.4983   14.0501   16.7177 S.3       1 UNK        -0.1299
     14 C14        42.4736   13.0428   15.7309 C.2       1 UNK        -0.3136
     15 C15        42.1345   11.6814   16.1187 C.ar      1 UNK         0.3327
     16 C16        43.0991   10.8232   16.6550 C.ar      1 UNK        -0.3138
     17 C17        42.7730    9.5138   17.0059 C.ar      1 UNK        -0.1029
     18 C18        41.4767    9.0403   16.8075 C.ar      1 UNK        -0.3026
     19 C19        40.4943    9.8795   16.2662 C.ar      1 UNK         0.3998
     20 N20        39.1733    9.4611   16.0229 N.pl3     1 UNK        -0.7389
     21 C21        38.8803    8.0706   15.6816 C.3       1 UNK         0.2829
     22 C22        39.5890    7.6410   14.3716 C.3       1 UNK        -0.0932
     23 C23        39.1749    6.2318   13.9220 C.3       1 UNK        -0.0255
     24 N24        37.7104    6.1236   13.8434 N.pl3     1 UNK        -0.4236
     25 S25        36.9761    5.2050   12.5892 S.o2      1 UNK         0.8889
     26 O26        37.8364    5.3259   11.4042 O.2       1 UNK        -0.5011
     27 O27        35.5548    5.5863   12.5166 O.2       1 UNK        -0.4921
     28 C28        37.1037    3.4728   13.2183 C.3       1 UNK        -0.5497
     29 C29        36.7137    2.5266   12.0998 C.ar      1 UNK         0.3666
     30 C30        35.3715    2.1867   11.9063 C.ar      1 UNK        -0.3017
     31 C31        35.0075    1.3509   10.8514 C.ar      1 UNK        -0.0722
     32 C32        35.9839    0.8540    9.9894 C.ar      1 UNK        -0.1684
     33 C33        37.3260    1.1810   10.1830 C.ar      1 UNK        -0.0701
     34 C34        37.6914    2.0147   11.2396 C.ar      1 UNK        -0.2933
     35 C35        36.9746    6.4537   15.0726 C.3       1 UNK        -0.2116
     36 C36        37.3499    7.8627   15.5714 C.3       1 UNK         0.0444
     37 C37        40.8302   11.1974   15.9487 C.ar      1 UNK        -0.4254
     38 H38        41.0936   13.9787   12.7430 H         1 UNK         0.1100
     39 H39        41.7069   12.3405   13.0719 H         1 UNK         0.0821
     40 H40        40.2642   12.9387   13.9256 H         1 UNK         0.0831
     41 H41        40.0886   15.8379   13.9235 H         1 UNK         0.0728
     42 H42        40.8969   17.1346   14.8012 H         1 UNK         0.0935
     43 H43        44.1104   11.1712   16.8083 H         1 UNK         0.1590
     44 H44        43.5244    8.8661   17.4327 H         1 UNK         0.1362
     45 H45        41.2432    8.0198   17.0746 H         1 UNK         0.1577
     46 H46        38.4441   10.1521   16.1264 H         1 UNK         0.3947
     47 H47        39.2589    7.4686   16.5076 H         1 UNK         0.0202
     48 H48        39.3499    8.3541   13.5828 H         1 UNK         0.0747
     49 H49        40.6706    7.6852   14.4991 H         1 UNK         0.0440
     50 H50        39.5253    5.4655   14.6134 H         1 UNK         0.1175
     51 H51        39.6129    5.9826   12.9555 H         1 UNK         0.0917
     52 H52        38.1271    3.3079   13.5550 H         1 UNK         0.2544
     53 H53        36.4608    3.3486   14.0877 H         1 UNK         0.2062
     54 H54        34.6091    2.5781   12.5626 H         1 UNK         0.1875
     55 H55        33.9697    1.0939   10.6989 H         1 UNK         0.1233
     56 H56        35.7040    0.2213    9.1599 H         1 UNK         0.1376
     57 H57        38.0756    0.8016    9.5040 H         1 UNK         0.1283
     58 H58        38.7321    2.2645   11.3849 H         1 UNK         0.1571
     59 H59        37.2043    5.6975   15.8233 H         1 UNK         0.1527
     60 H60        35.9002    6.3859   14.9017 H         1 UNK         0.1475
     61 H61        36.8766    8.0462   16.5360 H         1 UNK         0.0232
     62 H62        36.9348    8.6028   14.8873 H         1 UNK         0.0387
     63 H63        40.0955   11.8787   15.5559 H         1 UNK         0.1908
@<TRIPOS>BOND
     1    1    2 1    
     2    1   38 1    
     3    1   39 1    
     4    1   40 1    
     5    2   14 2    
     6    2    3 1    
     7    3    4 1    
     8    3    9 2    
     9    4    5 1    
    10    5    6 1    
    11    5   41 1    
    12    5   42 1    
    13    6    7 2    
    14    6    8 1    
    15    9   10 1    
    16    9   13 1    
    17   10   11 2    
    18   10   12 1    
    19   13   14 1    
    20   14   15 1    
    21   15   37 ar   
    22   15   16 ar   
    23   16   17 ar   
    24   16   43 1    
    25   17   18 ar   
    26   17   44 1    
    27   18   19 ar   
    28   18   45 1    
    29   19   20 1    
    30   19   37 ar   
    31   20   21 1    
    32   20   46 1    
    33   21   36 1    
    34   21   22 1    
    35   21   47 1    
    36   22   23 1    
    37   22   48 1    
    38   22   49 1    
    39   23   24 1    
    40   23   50 1    
    41   23   51 1    
    42   24   25 1    
    43   24   35 1    
    44   25   26 2    
    45   25   27 2    
    46   25   28 1    
    47   28   29 1    
    48   28   52 1    
    49   28   53 1    
    50   29   34 ar   
    51   29   30 ar   
    52   30   31 ar   
    53   30   54 1    
    54   31   32 ar   
    55   31   55 1    
    56   32   33 ar   
    57   32   56 1    
    58   33   34 ar   
    59   33   57 1    
    60   34   58 1    
    61   35   36 1    
    62   35   59 1    
    63   35   60 1    
    64   36   61 1    
    65   36   62 1    
    66   37   63 1    
@<TRIPOS>SUBSTRUCTURE
@<TRIPOS>MOLECULE
23486
60   63   0
SMALL
NO_CHARGES


@<TRIPOS>ATOM
      1 O1         41.2756   17.6314   11.7392 O.co2     1 UNK        -0.8086
      2 C2         40.5209   17.5798   12.7363 C.2       1 UNK         0.7883
      3 O3         39.5112   18.2966   12.9137 O.co2     1 UNK        -0.8542
      4 C4         40.8718   16.5948   13.8531 C.3       1 UNK         0.0540
      5 O5         42.1284   15.9801   13.6057 O.3       1 UNK        -0.4813
      6 C6         42.5067   15.0961   14.5535 C.2       1 UNK         0.3669
      7 C7         42.1050   13.7638   14.6029 C.2       1 UNK        -0.0100
      8 Cl8        41.1936   13.1078   13.3221 Cl        1 UNK        -0.0900
      9 C9         42.4736   13.0428   15.7309 C.2       1 UNK        -0.1675
     10 C10        42.1345   11.6814   16.1187 C.ar      1 UNK         0.3253
     11 C11        43.0991   10.8232   16.6550 C.ar      1 UNK        -0.3316
     12 C12        42.7730    9.5138   17.0059 C.ar      1 UNK        -0.0447
     13 C13        41.4767    9.0403   16.8075 C.ar      1 UNK        -0.4016
     14 C14        40.4943    9.8795   16.2662 C.ar      1 UNK         0.5650
     15 N15        39.1733    9.4611   16.0229 N.pl3     1 UNK        -0.8993
     16 C16        38.8803    8.0706   15.6816 C.3       1 UNK         0.5503
     17 C17        37.3499    7.8627   15.5714 C.3       1 UNK        -0.2411
     18 C18        36.9746    6.4537   15.0726 C.3       1 UNK        -0.0622
     19 N19        37.7104    6.1236   13.8434 N.pl3     1 UNK        -0.1440
     20 S20        36.9761    5.2050   12.5892 S.o2      1 UNK         0.7485
     21 O21        37.8364    5.3259   11.4042 O.2       1 UNK        -0.5014
     22 O22        35.5548    5.5863   12.5166 O.2       1 UNK        -0.4966
     23 C23        37.1037    3.4728   13.2183 C.3       1 UNK        -0.4271
     24 C24        36.7137    2.5266   12.0998 C.ar      1 UNK         0.3038
     25 C25        35.3715    2.1867   11.9063 C.ar      1 UNK        -0.2537
     26 C26        35.0075    1.3509   10.8514 C.ar      1 UNK        -0.0912
     27 C27        35.9839    0.8540    9.9894 C.ar      1 UNK        -0.1585
     28 C28        37.3260    1.1810   10.1830 C.ar      1 UNK        -0.0910
     29 C29        37.6914    2.0147   11.2396 C.ar      1 UNK        -0.2618
     30 C30        39.1749    6.2318   13.9220 C.3       1 UNK        -0.1284
     31 C31        39.5890    7.6410   14.3716 C.3       1 UNK        -0.1898
     32 C32        40.8302   11.1974   15.9487 C.ar      1 UNK        -0.5001
     33 S33        43.4983   14.0501   16.7177 S.3       1 UNK        -0.0588
     34 C34        43.3217   15.4163   15.6304 C.2       1 UNK        -0.2109
     35 C35        44.0307   16.6631   16.0010 C.2       1 UNK         0.7311
     36 O36        44.7160   16.6749   17.0464 O.co2     1 UNK        -0.7709
     37 O37        43.9282   17.6692   15.2634 O.co2     1 UNK        -0.7530
     38 H38        40.0886   15.8379   13.9235 H         1 UNK         0.0366
     39 H39        40.8969   17.1346   14.8012 H         1 UNK         0.0759
     40 H40        44.1104   11.1712   16.8083 H         1 UNK         0.1592
     41 H41        43.5244    8.8661   17.4327 H         1 UNK         0.1357
     42 H42        41.2432    8.0198   17.0746 H         1 UNK         0.1716
     43 H43        38.4430   10.1494   16.1365 H         1 UNK         0.4288
     44 H44        39.2589    7.4686   16.5076 H         1 UNK         0.0160
     45 H45        36.8766    8.0462   16.5360 H         1 UNK         0.0843
     46 H46        36.9348    8.6028   14.8873 H         1 UNK         0.0830
     47 H47        37.2043    5.6975   15.8233 H         1 UNK         0.0726
     48 H48        35.9002    6.3859   14.9017 H         1 UNK         0.1241
     49 H49        38.1412    3.3049   13.5075 H         1 UNK         0.1806
     50 H50        36.4977    3.3763   14.1188 H         1 UNK         0.1744
     51 H51        34.6147    2.5649   12.5777 H         1 UNK         0.1616
     52 H52        33.9702    1.0888   10.7035 H         1 UNK         0.1273
     53 H53        35.7015    0.2167    9.1646 H         1 UNK         0.1349
     54 H54        38.0784    0.7898    9.5143 H         1 UNK         0.1305
     55 H55        38.7325    2.2599   11.3891 H         1 UNK         0.1548
     56 H56        39.5253    5.4655   14.6134 H         1 UNK         0.0841
     57 H57        39.6129    5.9826   12.9555 H         1 UNK         0.1423
     58 H58        39.3499    8.3541   13.5828 H         1 UNK         0.0688
     59 H59        40.6706    7.6852   14.4991 H         1 UNK         0.0737
     60 H60        40.0955   11.8787   15.5559 H         1 UNK         0.1751
@<TRIPOS>BOND
     1    1    2 2    
     2    2    3 1    
     3    2    4 1    
     4    4    5 1    
     5    4   38 1    
     6    4   39 1    
     7    5    6 1    
     8    6   34 2    
     9    6    7 1    
    10    7    8 1    
    11    7    9 2    
    12    9   10 1    
    13    9   33 1    
    14   10   32 ar   
    15   10   11 ar   
    16   11   12 ar   
    17   11   40 1    
    18   12   13 ar   
    19   12   41 1    
    20   13   14 ar   
    21   13   42 1    
    22   14   15 1    
    23   14   32 ar   
    24   15   16 1    
    25   15   43 1    
    26   16   31 1    
    27   16   17 1    
    28   16   44 1    
    29   17   18 1    
    30   17   45 1    
    31   17   46 1    
    32   18   19 1    
    33   18   47 1    
    34   18   48 1    
    35   19   20 1    
    36   19   30 1    
    37   20   21 2    
    38   20   22 2    
    39   20   23 1    
    40   23   24 1    
    41   23   49 1    
    42   23   50 1    
    43   24   29 ar   
    44   24   25 ar   
    45   25   26 ar   
    46   25   51 1    
    47   26   27 ar   
    48   26   52 1    
    49   27   28 ar   
    50   27   53 1    
    51   28   29 ar   
    52   28   54 1    
    53   29   55 1    
    54   30   31 1    
    55   30   56 1    
    56   30   57 1    
    57   31   58 1    
    58   31   59 1    
    59   32   60 1    
    60   33   34 1    
    61   34   35 1    
    62   35   36 2    
    63   35   37 1    
@<TRIPOS>SUBSTRUCTURE
